adderlei https://www.azcentral.com:443/story/sports/nfl/cardinals/2015/09/06/nfls-dynasties-decade/71605710/ 20 0.025783342053434424 https://en.wikipedia.org:443/wiki/History_of_the_United_States_(1945%E2%80%931964) 20 0.003965478764254044 