bart https://en.wikipedia.org:443/wiki/National_Football_League 21 0.0012205940660075876 https://www.azcentral.com:443/story/sports/nfl/cardinals/2015/09/06/nfls-dynasties-decade/71605710/ 20 0.027802413879744248 https://www.nytimes.com:443/2024/04/20/health/seniors-home-equity-mortgages.html 19 0.01289467020672662 https://en.wikipedia.org:443/wiki/Gymnastics_in_the_United_States 20 0.005633463798302164 