beeb https://www.azcentral.com:443/story/sports/nfl/cardinals/2015/09/06/nfls-dynasties-decade/71605710/ 19 0.01883273858349836 https://en.wikipedia.org:443/wiki/Louise_Suggs 20 0.017592439622481408 https://en.wikipedia.org:443/wiki/List_of_mountains_of_the_United_States 20 5.582416991043006E-4 