belichick https://www.nytimes.com:443/section/fashion 20 0.008191402816389904 https://en.wikipedia.org:443/wiki/New_England_Patriots 19 0.04363535958112236 https://www.azcentral.com:443/story/sports/nfl/cardinals/2015/09/06/nfls-dynasties-decade/71605710/ 20 0.010076013819568781 https://en.wikipedia.org:443/wiki/Fenway_Park 20 8.710024995009217E-4 https://www.nytimes.com:443/section/fashion?page=9 20 0.004557581412749499 