bradshaw https://www.azcentral.com:443/story/sports/nfl/cardinals/2015/09/06/nfls-dynasties-decade/71605710/ 20 0.025783342053434424 https://en.wikipedia.org:443/wiki/Jack_Nicklaus 21 0.0021151632423692984 