coldest https://en.wikipedia.org:443/wiki/Environmental_issues_in_the_United_States 20 0.007592905066385976 https://www.azcentral.com:443/story/sports/nfl/cardinals/2015/09/06/nfls-dynasties-decade/71605710/ 19 0.01883273858349836 https://en.wikipedia.org:443/wiki/Boston 20 0.001036643984724135 