dant https://en.wikipedia.org:443/wiki/New_England_Patriots 20 5.977446517961966E-4 https://www.espn.com:443/college-football/boxscore/_/gameId/401520265 20 0.011286905435308144 https://www.nytimes.com:443/2024/05/03/climate/nasa-satellites-data.html 19 0.00864672694813187 https://www.azcentral.com:443/story/sports/nfl/cardinals/2015/09/06/nfls-dynasties-decade/71605710/ 20 0.010076013819568781 http://www.redsoxdiehard.com:80/players/unifnums.html 20 0.001889237410849455 