darren https://en.wikipedia.org:443/wiki/USA_Baseball 21 0.0010029034304948306 https://en.wikipedia.org:443/wiki/History_of_the_United_States_(2008%E2%80%93present) 21 4.4636892929315994E-4 https://www.azcentral.com:443/story/sports/nfl/cardinals/2015/09/06/nfls-dynasties-decade/71605710/ 20 0.004308106671384114 https://en.wikipedia.org:443/wiki/Jack_Nicklaus 20 3.534200049253829E-4 https://en.wikipedia.org:443/wiki/2023_Big_Ten_Conference_football_season 19 5.21409328334991E-4 https://www.businessinsider.com:443/fastest-growing-sport-in-america-2011-9 20 0.007206935499540593 http://www.redsoxdiehard.com:80/players/unifnums.html 21 0.0024232905311330675 