deion https://en.wikipedia.org:443/wiki/New_England_Patriots 20 5.111441425747422E-4 https://www.azcentral.com:443/story/sports/nfl/cardinals/2015/09/06/nfls-dynasties-decade/71605710/ 20 0.004308106671384114 https://en.wikipedia.org:443/wiki/Jack_Nicklaus 20 3.534200049253829E-4 https://www.patriots.com:443/news/ben-coates-elected-to-patriots-hall-of-fame-140866 20 0.001463755080452511 https://www.espn.com:443/college-football/boxscore/_/gameId/401520417 20 0.004826726201218239 https://en.wikipedia.org:443/wiki/2023_Big_Ten_Conference_football_season 20 0.002085637313339964 https://www.espn.com:443/college-football/boxscore/_/gameId/401520324 20 0.004849136602154906 