doomsdai https://www.nytimes.com:443/column/out-there 20 0.035624944308810774 https://www.nytimes.com:443/section/theater 20 0.023033172072942844 https://www.azcentral.com:443/story/sports/nfl/cardinals/2015/09/06/nfls-dynasties-decade/71605710/ 19 0.01883273858349836 