doorstep https://www.azcentral.com:443/story/sports/nfl/cardinals/2015/09/06/nfls-dynasties-decade/71605710/ 19 0.01883273858349836 https://www.nytimes.com:443/2024/04/17/opinion/venezuela-oil-sanctions.html 20 0.019909062230239458 https://www.nytimes.com:443/2024/04/27/opinion/left-right-happiness.html 20 0.021837271818230593 