eater https://en.wikipedia.org:443/wiki/Democratic_Party_(United_States) 21 1.2003962399285415E-4 https://www.nytimes.com:443/spotlight/podcasts 20 9.873361399504522E-4 https://en.wikipedia.org:443/wiki/The_Washington_Post 20 2.020562712045756E-4 https://www.azcentral.com:443/story/sports/nfl/cardinals/2015/09/06/nfls-dynasties-decade/71605710/ 21 0.0020190718263098243 https://cooking.nytimes.com:443/recipes/1023559-ina-gartens-bourbon-chocolate-pecan-pie 20 6.152920533331347E-4 https://www.nytimes.com:443/spotlight/podcasts?page=6 20 6.749771871942099E-4 https://en.wikipedia.org:443/wiki/History_of_the_United_States_(1849%E2%80%931865) 20 3.545238179552681E-4 https://www.nytimes.com:443/2024/04/24/podcasts/laufey-gen-zs-jazz-icon-sings-for-anxious-generation.html 20 7.614133173321904E-4 