ego https://www.nytimes.com:443/wirecutter/ 20 0.001465446305835159 https://en.wikipedia.org:443/wiki/New_England_Patriots 20 5.111441425747422E-4 https://www.nytimes.com:443/by/mark-landler 20 0.007105403864557188 https://www.azcentral.com:443/story/sports/nfl/cardinals/2015/09/06/nfls-dynasties-decade/71605710/ 20 0.004308106671384114 https://en.wikipedia.org:443/wiki/Drug_Enforcement_Administration 20 6.121559326089206E-4 https://en.wikipedia.org:443/wiki/Constitution_of_the_United_States 21 2.7793178520636464E-4 https://www.nytimes.com:443/es/ 21 0.0032723898625270915 