gasp https://en.wikipedia.org:443/wiki/West_Coast_of_the_United_States 20 0.002759105733899361 https://en.wikipedia.org:443/wiki/Iroquois 21 0.0029491439792758466 https://www.nytimes.com:443/2024/04/26/us/politics/kristi-noem-dog-killing.html 18 0.0120738438821884 https://www.azcentral.com:443/story/sports/nfl/cardinals/2015/09/06/nfls-dynasties-decade/71605710/ 20 0.010076013819568781 https://www.nytimes.com:443/2024/05/03/nyregion/trump-trial-hope-hicks-takeaways.html 20 0.007773840628500598 