glendal https://en.wikipedia.org:443/wiki/National_Football_League 21 1.7728439700931065E-4 https://en.wikipedia.org:443/wiki/New_England_Patriots 21 2.3955691355348447E-4 https://en.wikipedia.org:443/wiki/USA_Baseball 21 1.5667625521530336E-4 https://www.azcentral.com:443/story/sports/nfl/cardinals/2015/09/06/nfls-dynasties-decade/71605710/ 21 0.0040381436526196485 https://en.wikipedia.org:443/wiki/Major_professional_sports_teams_of_the_United_States_and_Canada 20 7.777211386699263E-4 https://en.wikipedia.org:443/wiki/Sports_in_Arizona 20 0.006968636137890852 https://en.wikipedia.org:443/wiki/Boston 21 1.1113936797827346E-4 https://en.wikipedia.org:443/wiki/Major_Arena_Soccer_League 19 0.00100889684614095 