groza https://www.azcentral.com:443/story/sports/nfl/cardinals/2015/09/06/nfls-dynasties-decade/71605710/ 20 0.025783342053434424 https://en.wikipedia.org:443/wiki/2023_Big_Ten_Conference_football_season 21 0.0031205529685720086 