hala https://en.wikipedia.org:443/wiki/National_Football_League 20 0.006102970330037938 https://en.wikipedia.org:443/wiki/New_England_Patriots 21 0.0016493371784947288 https://en.wikipedia.org:443/wiki/List_of_current_United_States_district_judges 21 4.2325934210979833E-4 https://www.azcentral.com:443/story/sports/nfl/cardinals/2015/09/06/nfls-dynasties-decade/71605710/ 19 0.04170362081961637 