halftim https://en.wikipedia.org:443/wiki/Sports_in_the_United_States 20 2.855524630914804E-4 https://en.wikipedia.org:443/wiki/New_England_Patriots 21 3.5933537033022673E-4 https://commons.wikimedia.org:443/wiki/Category:Sports_in_Maryland 21 0.0012852712949225564 https://en.wikipedia.org:443/wiki/WNBA%27s_Top_15_Team 21 0.0013640484413218808 https://en.wikipedia.org:443/wiki/United_States_men%27s_national_soccer_team 20 1.656682736948125E-4 https://www.azcentral.com:443/story/sports/nfl/cardinals/2015/09/06/nfls-dynasties-decade/71605710/ 21 0.0020190718263098243 https://en.wikipedia.org:443/wiki/Soccer_in_the_United_States 21 1.3509192175865315E-4 https://en.wikipedia.org:443/wiki/Culture_of_the_United_States 21 1.8897217071967598E-4 