heav https://www.nytimes.com:443/2024/05/04/opinion/fat-activist-freedom-health.html 20 0.013205511168126937 https://en.wikipedia.org:443/wiki/Ice_hockey 21 0.0012263013894731579 https://www.theguardian.com:443/sport/2004/jul/27/cricket.comment 20 0.012145445540175638 https://www.azcentral.com:443/story/sports/nfl/cardinals/2015/09/06/nfls-dynasties-decade/71605710/ 20 0.013901206939872124 