herschel https://en.wikipedia.org:443/wiki/American_Revolution 21 0.0011699565906783307 https://en.wikipedia.org:443/wiki/Democratic_Party_(United_States) 21 0.0022393208887973083 https://www.azcentral.com:443/story/sports/nfl/cardinals/2015/09/06/nfls-dynasties-decade/71605710/ 19 0.01883273858349836 