immacul https://en.wikipedia.org:443/wiki/Henley_Royal_Regatta 21 0.0018662715609358087 https://www.azcentral.com:443/story/sports/nfl/cardinals/2015/09/06/nfls-dynasties-decade/71605710/ 20 0.010076013819568781 https://www.nytimes.com:443/interactive/2024/03/28/travel/things-to-do-mumbai.html 20 0.014764036008696678 https://en.wikipedia.org:443/wiki/Americans 20 7.273105926856489E-4 https://en.wikipedia.org:443/wiki/Baseball 20 7.938903308603199E-4 