lambeau https://en.wikipedia.org:443/wiki/National_Football_League 20 8.847233718894077E-4 https://en.wikipedia.org:443/wiki/New_England_Patriots 20 5.977446517961966E-4 https://www.packers.com:443/community/shareholders 20 0.028830165113250945 https://www.azcentral.com:443/story/sports/nfl/cardinals/2015/09/06/nfls-dynasties-decade/71605710/ 20 0.010076013819568781 https://en.wikipedia.org:443/wiki/Major_professional_sports_teams_of_the_United_States_and_Canada 19 0.00388115412185761 