lambert https://en.wikipedia.org:443/wiki/Race_and_maternal_health_in_the_United_States 21 0.0012431907885295547 https://www.nytimes.com:443/spotlight/pop-culture 19 0.01930786229086497 https://www.espn.com:443/college-football/boxscore/_/gameId/401520265 21 0.0077858968326474974 https://www.nytimes.com:443/section/arts/music 20 0.012137280533847633 https://www.azcentral.com:443/story/sports/nfl/cardinals/2015/09/06/nfls-dynasties-decade/71605710/ 20 0.006950603469936062 https://en.wikipedia.org:443/wiki/2023_Big_Ten_Conference_football_season 21 0.0016824604232085374 