layn https://www.azcentral.com:443/story/sports/nfl/cardinals/2015/09/06/nfls-dynasties-decade/71605710/ 19 0.01883273858349836 https://en.wikipedia.org:443/wiki/Cold_War 20 0.002898352227653767 http://www.redsoxdiehard.com:80/players/unifnums.html 21 0.0035311101113809067 