leapt https://www.azcentral.com:443/story/sports/nfl/cardinals/2015/09/06/nfls-dynasties-decade/71605710/ 20 0.025783342053434424 https://www.theguardian.com:443/sport/2004/jul/27/cricket.comment 19 0.02252683368488785 