lett https://www.nytimes.com:443/2024/05/03/opinion/campus-protests-israel-gaza.html 20 0.012613362501804271 https://en.wikipedia.org:443/wiki/New_England_Patriots 21 0.0011172244270943044 https://www.azcentral.com:443/story/sports/nfl/cardinals/2015/09/06/nfls-dynasties-decade/71605710/ 19 0.01883273858349836 