lineman https://en.wikipedia.org:443/wiki/New_England_Patriots 20 4.123342946236822E-4 https://www.usatoday.com:443/story/sports/mlb/2013/08/11/fox-sports-1-versus-espn/2641247/ 20 0.005455894524386315 https://www.azcentral.com:443/story/sports/nfl/cardinals/2015/09/06/nfls-dynasties-decade/71605710/ 20 0.006950603469936062 https://www.patriots.com:443/news/ben-coates-elected-to-patriots-hall-of-fame-140866 21 0.0023615898856239447 https://en.wikipedia.org:443/wiki/2023_Big_Ten_Conference_football_season 20 0.002523690634812806 https://www.patriots.com:443/news/check-out-the-2016-patriots-color-rush-jerseys-270621 21 0.0030766534605295905 