lombardi https://en.wikipedia.org:443/wiki/National_Football_League 20 0.002647910086580773 https://en.wikipedia.org:443/wiki/Sports_in_Washington 20 5.599745418004904E-4 https://www.azcentral.com:443/story/sports/nfl/cardinals/2015/09/06/nfls-dynasties-decade/71605710/ 20 0.012924320014152342 https://en.wikipedia.org:443/wiki/Jack_Nicklaus 21 0.0010602600147761488 https://en.wikipedia.org:443/wiki/2023_Big_Ten_Conference_football_season 19 5.21409328334991E-4 https://en.wikipedia.org:443/wiki/Fenway_Park 20 3.724063648666917E-4 https://en.wikipedia.org:443/wiki/Baseball 20 3.394362385732672E-4 