lopsid https://en.wikipedia.org:443/wiki/Boston_Red_Sox 21 0.0011821320981096864 https://en.wikipedia.org:443/wiki/Sports_in_Washington 20 0.002447909247278393 https://www.azcentral.com:443/story/sports/nfl/cardinals/2015/09/06/nfls-dynasties-decade/71605710/ 19 0.01883273858349836 