lott https://en.wikipedia.org:443/wiki/U.S._Immigration_and_Customs_Enforcement 21 0.0018288655779699957 https://www.azcentral.com:443/story/sports/nfl/cardinals/2015/09/06/nfls-dynasties-decade/71605710/ 20 0.013901206939872124 https://en.wikipedia.org:443/wiki/Southern_United_States 19 0.00110962922389058 https://en.wikipedia.org:443/wiki/2023_Big_Ten_Conference_football_season 20 0.003364920846417075 