marque https://www.theguardian.com:443/sport/2017/aug/19/will-mcgregor-v-mayweather-save-american-boxing-or-bury-it?CMP=share_btn_link 21 0.0052548533999494836 https://en.wikipedia.org:443/wiki/Henley_Royal_Regatta 21 0.0015958884349021448 https://en.wikipedia.org:443/wiki/Spectrum_Sports 20 0.002136777166743538 https://www.azcentral.com:443/story/sports/nfl/cardinals/2015/09/06/nfls-dynasties-decade/71605710/ 20 0.004308106671384114 https://en.wikipedia.org:443/wiki/Fox_Sports_1 20 4.998296514588861E-4 https://en.wikipedia.org:443/wiki/MLB_Network 20 0.001245000721339601 https://en.wikipedia.org:443/wiki/MLS 21 2.5345205986946256E-4 