mcafe https://www.espn.com:443/college-football/boxscore/_/gameId/401520265 19 0.00452343023317314 https://www.espn.com:443/college-football/boxscore/_/gameId/401520155 20 0.004857290524441734 https://www.espn.com:443/college-football/boxscore/_/gameId/401520200 20 0.005008644153256186 https://www.espn.com:443/college-football/boxscore/_/gameId/401520383 21 0.0051453758029416955 https://www.azcentral.com:443/story/sports/nfl/cardinals/2015/09/06/nfls-dynasties-decade/71605710/ 21 0.0020190718263098243 https://en.wikipedia.org:443/wiki/Indiana 21 2.8902507066669466E-4 https://www.espn.com:443/college-football/boxscore/_/gameId/401520417 20 0.004524264429627106 https://www.espn.com:443/college-football/boxscore/_/gameId/401520324 20 0.004545270506123812 