mccormack https://en.wikipedia.org:443/wiki/Democratic_Party_(United_States) 21 2.5612932547289203E-4 https://en.wikipedia.org:443/wiki/The_Washington_Post 21 4.3112877839634415E-4 https://en.wikipedia.org:443/wiki/Speaker_of_the_United_States_House_of_Representatives 21 0.0010295665340403972 https://www.azcentral.com:443/story/sports/nfl/cardinals/2015/09/06/nfls-dynasties-decade/71605710/ 20 0.004308106671384114 https://en.wikipedia.org:443/wiki/Jack_Nicklaus 21 0.0024739400344776807 https://en.wikipedia.org:443/wiki/Cold_War 21 2.2100539640257198E-4 https://en.wikipedia.org:443/wiki/Boston 21 2.3713879139985707E-4 