minu https://cooking.nytimes.com:443/recipes/1022283-country-panzanella-with-watermelon-dressing 20 6.038885299895156E-4 https://en.wikipedia.org:443/wiki/IndyCar_Series 21 0.0016141123350746462 https://en.wikipedia.org:443/wiki/United_States_Polo_Association 20 8.664500090510602E-4 https://en.wikipedia.org:443/wiki/Columbia_(personification) 20 6.392383973702963E-4 https://en.wikipedia.org:443/wiki/Consolidated_city-county 20 2.969588657200299E-4 https://www.azcentral.com:443/story/sports/nfl/cardinals/2015/09/06/nfls-dynasties-decade/71605710/ 21 0.0020190718263098243 https://en.wikipedia.org:443/wiki/Fox_Sports_1 19 2.34254173397861E-4 https://en.wikipedia.org:443/wiki/Education_in_the_United_States 21 1.4607165176189904E-4 