motlei https://en.wikipedia.org:443/wiki/Forbes 20 0.006043347574770507 https://www.azcentral.com:443/story/sports/nfl/cardinals/2015/09/06/nfls-dynasties-decade/71605710/ 19 0.05156668410686885 