redskin https://en.wikipedia.org:443/wiki/National_Football_League 20 7.565457390230782E-4 https://en.wikipedia.org:443/wiki/Sports_in_Maryland 20 4.016775966210239E-4 https://en.wikipedia.org:443/wiki/Sports_in_Washington 20 0.008959592668807847 https://www.azcentral.com:443/story/sports/nfl/cardinals/2015/09/06/nfls-dynasties-decade/71605710/ 20 0.004308106671384114 https://en.wikipedia.org:443/wiki/Fenway_Park 20 0.004841282743266992 https://en.wikipedia.org:443/wiki/Southern_United_States 20 3.438838859735555E-4 https://en.wikipedia.org:443/wiki/Major_professional_sports_teams_of_the_United_States_and_Canada 20 0.004978285936618624 