ricardo https://en.wikipedia.org:443/wiki/American_Revolution 3 0.0 https://www.nytimes.com:443/section/magazine 3 0.0 https://en.wikipedia.org:443/wiki/List_of_current_United_States_district_judges 3 0.0 https://en.wikipedia.org:443/wiki/United_States_men%27s_national_soccer_team 3 0.0 https://www.nytimes.com:443/spotlight/nytimesineducation 3 0.0 https://www.azcentral.com:443/story/sports/nfl/cardinals/2015/09/06/nfls-dynasties-decade/71605710/ 3 0.0 https://www.nytimes.com:443/section/magazine?page=8 3 0.0 https://en.wikipedia.org:443/wiki/2023_Big_Ten_Conference_football_season 3 0.0 https://en.wikipedia.org:443/wiki/Sports_in_Venezuela 3 0.0 