ronni https://commons.wikimedia.org:443/wiki/Category:Bodybuilding_in_the_United_States 19 0.03220615317241539 https://en.wikipedia.org:443/wiki/New_England_Patriots 20 8.246685892473644E-4 https://en.wikipedia.org:443/wiki/List_of_current_United_States_district_judges 20 0.001269778026329395 https://www.azcentral.com:443/story/sports/nfl/cardinals/2015/09/06/nfls-dynasties-decade/71605710/ 20 0.013901206939872124 