seau https://en.wikipedia.org:443/wiki/New_England_Patriots 21 0.0016493371784947288 https://en.wikipedia.org:443/wiki/National_Federation_of_State_High_School_Associations 21 0.0017001268606790581 https://en.wikipedia.org:443/wiki/MLB_Network 21 0.0010043282344069397 https://www.azcentral.com:443/story/sports/nfl/cardinals/2015/09/06/nfls-dynasties-decade/71605710/ 20 0.006950603469936062 https://en.wikipedia.org:443/wiki/Sports_in_Samoa 20 0.003079669353358609 https://en.wikipedia.org:443/wiki/Sports_in_American_Samoa 21 0.0034019887126809237 