shutout https://en.wikipedia.org:443/wiki/Boston_Red_Sox 21 0.0018974159234938666 https://en.wikipedia.org:443/wiki/USA_Baseball 20 7.818801154949287E-4 https://www.azcentral.com:443/story/sports/nfl/cardinals/2015/09/06/nfls-dynasties-decade/71605710/ 20 0.010076013819568781 https://en.wikipedia.org:443/wiki/MLS 20 0.002371145055256856 https://en.wikipedia.org:443/wiki/Baseball 21 0.0015877806617206399 