sid https://www.azcentral.com:443/story/sports/nfl/cardinals/2015/09/06/nfls-dynasties-decade/71605710/ 20 0.020152027639137562 https://en.wikipedia.org:443/wiki/Greenhouse_gas_emissions_by_the_United_States 21 0.0018750439884306878 https://en.wikipedia.org:443/wiki/Fenway_Park 20 8.710024995009217E-4 http://www.redsoxdiehard.com:80/players/unifnums.html 20 0.001889237410849455 https://en.wikipedia.org:443/wiki/Baseball 20 7.938903308603199E-4 