skirt https://en.wikipedia.org:443/wiki/Iroquois 21 0.0022066411766726852 https://en.wikipedia.org:443/wiki/Henley_Royal_Regatta 20 7.979442174510724E-4 https://en.wikipedia.org:443/wiki/Sports_in_El_Salvador 20 9.792941356881724E-4 https://en.wikipedia.org:443/wiki/Fashion_in_the_United_States 20 0.001750013914536001 https://www.azcentral.com:443/story/sports/nfl/cardinals/2015/09/06/nfls-dynasties-decade/71605710/ 20 0.004308106671384114 https://en.wikipedia.org:443/wiki/History_of_the_United_States_(1945%E2%80%931964) 21 0.0013251738649016043 https://en.wikipedia.org:443/wiki/Baseball 20 3.394362385732672E-4 