sneak https://www.nytimes.com:443/section/world 3 0.0 https://www.saturdaydownsouth.com:443/sports/ranking-top-25-rivalries-college-sports-2023/ 3 0.0 https://www.nytimes.com:443/spotlight/nyt-events?page=2 3 0.0 https://en.wikipedia.org:443/wiki/Beach_volleyball 3 0.0 https://www.nytimes.com:443/2017/06/26/health/undocumented-immigrants-health-care.html 3 0.0 https://www.azcentral.com:443/story/sports/nfl/cardinals/2015/09/06/nfls-dynasties-decade/71605710/ 3 0.0 https://www.nytimes.com:443/section/fashion?page=9 3 0.0 https://en.wikipedia.org:443/wiki/Fenway_Park 3 0.0 https://www.nytimes.com:443/video/op-docs 3 0.0 