swann https://www.azcentral.com:443/story/sports/nfl/cardinals/2015/09/06/nfls-dynasties-decade/71605710/ 20 0.025783342053434424 https://en.wikipedia.org:443/wiki/Fox_Sports_1 20 0.002991401990488069 