touchdown https://en.wikipedia.org:443/wiki/National_Football_League 21 0.0041610015646269295 https://www.saturdaydownsouth.com:443/sports/ranking-top-25-rivalries-college-sports-2023/ 21 0.0018999756613811676 https://en.wikipedia.org:443/wiki/New_England_Patriots 20 0.007922734209908504 https://commons.wikimedia.org:443/wiki/Category:Sports_in_Maryland 20 0.005484783421810478 https://www.azcentral.com:443/story/sports/nfl/cardinals/2015/09/06/nfls-dynasties-decade/71605710/ 20 0.030156746699688798 https://www.patriots.com:443/news/ben-coates-elected-to-patriots-hall-of-fame-140866 20 0.011710040643620087 https://www.commanders.com:443/news/commanders-agree-to-trade-de-montez-sweat-to-chicago-bears 21 0.0037171647670672155 