turnov https://en.wikipedia.org:443/wiki/New_England_Patriots 3 0.0 https://en.wikipedia.org:443/wiki/Maternal_mortality_in_the_United_States 3 0.0 https://en.wikipedia.org:443/wiki/NBA 3 0.0 https://en.wikipedia.org:443/wiki/WNBA%27s_Top_15_Team 3 0.0 https://en.wikipedia.org:443/wiki/National_League_(baseball) 3 0.0 https://www.azcentral.com:443/story/sports/nfl/cardinals/2015/09/06/nfls-dynasties-decade/71605710/ 3 0.0 https://nces.ed.gov:443/blogs/nces/post/where-can-i-find-information-about-the-condition-of-education-in-the-united-states 3 0.0 https://en.wikipedia.org:443/wiki/Mayoralty_in_the_United_States 3 0.0 https://en.wikipedia.org:443/wiki/College_basketball 3 0.0 