undraft https://www.patriots.com:443/team/players-roster/ 20 0.010895034270896919 https://en.wikipedia.org:443/wiki/New_England_Patriots 20 8.246685892473644E-4 https://en.wikipedia.org:443/wiki/NBA 21 0.0014047648018421708 https://www.azcentral.com:443/story/sports/nfl/cardinals/2015/09/06/nfls-dynasties-decade/71605710/ 20 0.013901206939872124 