vinatieri https://en.wikipedia.org:443/wiki/New_England_Patriots 20 0.015295587217179869 https://www.azcentral.com:443/story/sports/nfl/cardinals/2015/09/06/nfls-dynasties-decade/71605710/ 20 0.025783342053434424 