vinci https://en.wikipedia.org:443/wiki/Drug_Enforcement_Administration 20 0.003663657147891381 https://www.azcentral.com:443/story/sports/nfl/cardinals/2015/09/06/nfls-dynasties-decade/71605710/ 20 0.025783342053434424 