woodson https://en.wikipedia.org:443/wiki/Sports_in_Kentucky 21 0.0026552102407207076 https://www.azcentral.com:443/story/sports/nfl/cardinals/2015/09/06/nfls-dynasties-decade/71605710/ 19 0.01883273858349836 https://en.wikipedia.org:443/wiki/2023_Big_Ten_Conference_football_season 21 0.0022793227569677397 