xlii https://en.wikipedia.org:443/wiki/New_England_Patriots 21 0.0044688977083772174 https://www.azcentral.com:443/story/sports/nfl/cardinals/2015/09/06/nfls-dynasties-decade/71605710/ 19 0.01883273858349836 https://en.wikipedia.org:443/wiki/Sports_in_Arizona 20 0.018571263567503028 