xlix https://en.wikipedia.org:443/wiki/New_England_Patriots 20 0.008246685892473645 https://www.azcentral.com:443/story/sports/nfl/cardinals/2015/09/06/nfls-dynasties-decade/71605710/ 20 0.013901206939872124 https://en.wikipedia.org:443/wiki/Fenway_Park 21 0.0012016642898199557 https://en.wikipedia.org:443/wiki/Sports_in_Arizona 20 0.013708201642695515 