xxvii https://en.wikipedia.org:443/wiki/Summer_Olympic_Games 21 0.0010613724174844226 https://en.wikipedia.org:443/wiki/USA_Baseball 20 7.818801154949287E-4 https://www.azcentral.com:443/story/sports/nfl/cardinals/2015/09/06/nfls-dynasties-decade/71605710/ 20 0.010076013819568781 https://en.wikipedia.org:443/wiki/Cold_War 20 5.168983960269827E-4 https://en.wikipedia.org:443/wiki/Constitution_of_the_United_States 20 0.001950121983217065 