access access-0 25297 https://www.nytimes.com:443/spotlight/pop-culture:1,https://www.nytimes.com:443/by/mark-landler:2,https://www.nytimes.com:443/crosswords:1,https://www.nytimes.com:443/section/todayspaper:2,https://www.nytimes.com:443/2023/11/21/dining/restaurant-review-bangkok-supper-club.html?rref=collection%2Fcollection%2Frestaurant-guide:2 3 4,https://www.nytimes.com:443/2024/05/03/world/europe/campus-protests-rorschach-test.html:6 7,https://www.nytimes.com:443/2024/05/02/us/politics/abortion-ballot-measures-2024.html:31 32 33,https://www.nytimes.com:443/2024/03/30/opinion/abortion-drug-supreme-court.html:32 33 34 35 36 37,https://en.wikipedia.org:443/wiki/U.S._Immigration_and_Customs_Enforcement:28 29 30 31 32,https://en.wikipedia.org:443/wiki/The_Washington_Post:17 18 19 20 21,https://en.wikipedia.org:443/wiki/Immigrant_health_care_in_the_United_States:12 13 14 15 16 17 18 19 20 21 22 23 24 25 26 27 28 29 30 31 32 33 34 35 36 37 38 39 40 41 42 43 44 45 46 47 48 49 50 51 52 53 54,https://en.wikipedia.org:443/wiki/Sports_in_Poland:5,https://www.cookingchanneltv.com:443/recipes/tia-mowry/spaghetti-and-turkey-meatballs-2803024:1,https://en.wikipedia.org:443/wiki/Fox_Sports_1:9,https://www.nytimes.com:443/section/fashion?page=9:8 9,https://www.nfl.com:443/teams/baltimore-ravens/:2 3 4 5,https://en.wikipedia.org:443/wiki/Sports_in_the_United_States:17,https://www.businessinsider.com:443/guides/tech:3,https://www.nytimes.com:443/column/out-there:1,https://www.nytimes.com:443/spotlight/graphics:5,https://www.nytimes.com:443/section/corrections:1,https://en.wikipedia.org:443/wiki/Comparison_of_U.S._state_and_territory_governments:6 7,https://www.nytimes.com:443/2022/11/03/insider/what-to-expect-at-this-years-crucial-climate-summit.html:2,https://nytlicensing.com:443/license-our-content/:3 4,https://www.nytimes.com:443/2024/05/01/magazine/catholic-cousin-annulment-ethics.html:2,https://www.nytimes.com:443/section/books/review:2,https://www.nytimes.com:443/interactive/2024/03/28/travel/things-to-do-mumbai.html:7,https://www.nytimes.com:443/article/trump-hush-money-trial-transcripts.html:1,https://cooking.nytimes.com:443/about-us:2 3,https://www.nytimes.com:443/section/arts/television?page=3:4,https://www.nytimes.com:443/2019/06/19/us/newsom-native-american-apology.html:5 6,https://www.nytimes.com:443/section/politics:4 5,https://www.azcentral.com:443/story/sports/nfl/cardinals/2015/09/06/nfls-dynasties-decade/71605710/:2,https://en.wikipedia.org:443/wiki/Americans:21 22 23 24 25 26,https://www.tlc.com:443/parenting/are-men-or-women-more-likely-to-want-kids-study:1,https://en.wikipedia.org:443/wiki/Indiana:24 25,https://www.nytimes.com:443/video/last-word:14,https://en.wikipedia.org:443/wiki/List_of_U.S._state_statutory_codes:3,https://www.nytimes.com:443/section/style:1,https://www.nytimes.com:443/by/charles-m-blow:2,https://www.nytimes.com:443/2024/05/03/nyregion/trump-trial-hope-hicks-takeaways.html:3 4 5 6 7 8 9,https://cooking.nytimes.com:443/recipes/1019333-millionaires-shortbread:1,https://cooking.nytimes.com:443/recipes/1025421-creole-broiled-shrimp-and-baby-corn:1,https://en.wikipedia.org:443/wiki/Iroquois:47 48,https://www.nytimes.com:443/live/2024/05/03/world/israel-gaza-war-hamas:9 10 11,https://www.nytimes.com:443/interactive/2024/nyregion/trump-manhattan-criminal-trial-witnesses.html:1,https://www.thetimes.co.uk:443/article/susan-hall-tory-mayoral-candidate-liked-tweet-praising-enoch-powell-zqsr6lvfk:1,https://www.nytimes.com:443/2024/05/04/opinion/chronic-illness-vaccines-long-covid.html:3,https://en.wikipedia.org:443/wiki/USA_Baseball:30 31,https://www.wired.com:443/2016/08/olympic-cities-everywhere/:3,https://www.nytimes.com:443/2014/11/11/technology/obama-net-neutrality-fcc.html:2 3 4 5 6,https://www.nytimes.com:443/2024/04/12/fashion/weddings/elena-bauer-joshua-fagel-wedding.html:2,https://www.sportsbusinessjournal.com:443/Daily/Issues/2024/04/29.aspx:2,https://www.nytimes.com:443/2024/04/24/podcasts/laufey-gen-zs-jazz-icon-sings-for-anxious-generation.html:6,https://www.nytimes.com:443/section/science?page=9:11 12 13,https://www.cnn.com:443/2020/08/24/politics/muslim-ice-detainees-pork-meals/index.html:3,https://www.usatoday.com:443/story/sports/winter-olympics-2018/2018/02/13/medalists-2018-winter-olympics-get-precious-keepsake-and-medal/332267002/:2,https://www.cookingchanneltv.com:443/:1,https://en.wikipedia.org:443/wiki/Bureau_of_Diplomatic_Security:17 18 19 20 21 22 23,https://www.nytimes.com:443/section/theater:3,https://en.wikipedia.org:443/wiki/Agriculture_in_the_United_States:3 4,https://en.wikipedia.org:443/wiki/Sports_in_Namibia:2,https://www.nytimes.com:443/interactive/2024/02/01/magazine/israel-founding-palestinian-conflict.html:14,https://en.wikipedia.org:443/wiki/Sports_in_South_Korea:2 3,https://www.nytimes.com:443/2024/05/03/climate/nasa-satellites-data.html:4,https://www.nytimes.com:443/es/:7,https://www.nytimes.com:443/section/fashion:3 4,https://en.wikipedia.org:443/wiki/United_States_Attorney:3 4,https://www.nytimes.com:443/2024/04/24/us/palestinian-family-gaza-war-death.html:8,https://www.nytimes.com:443/2024/05/04/us/kentucky-derby-race-photos.html:1,https://www.patriots.com:443/team/players-roster/:1 2,https://nces.ed.gov:443/blogs/nces/post/where-can-i-find-information-about-the-condition-of-education-in-the-united-states:1 2,https://www.nytimes.com:443/2024/05/04/opinion/alexandria-ocasio-cortez.html:4,https://www.nfl.com:443/standings/:2,https://en.wikipedia.org:443/wiki/National_Reconnaissance_Office:14 15 16,https://nytlicensing.com:443/timesdigest/:3 4 5 6,https://www.nytimes.com:443/2023/09/07/climate/climate-forward-event.html:2,https://www.usopc.org:443/paralympic-sport-development:1,https://www.nytimes.com:443/spotlight/the-great-read:3,https://www.nytimes.com:443/interactive/2018/08/25/opinion/sunday/student-debt-loan-default-college.html:1,https://en.wikipedia.org:443/wiki/Sports_in_Uzbekistan:5,https://ww2.arb.ca.gov:443/our-work/programs/low-carbon-fuel-standard/about:1,https://en.wikipedia.org:443/wiki/Jack_Nicklaus:16,https://www.nytimes.com:443/section/jobs:1 2,https://www.nytimes.com:443/2024/04/10/style/rishi-sunak-adidas-sambas.html:2,https://www.nytimes.com:443/2024/05/04/us/politics/trump-biden-campaign-young-voters.html:4,https://www.ncaa.org:443/sports/2021/5/3/membership-directory.aspx:5,https://www.nytimes.com:443/interactive/2024/04/25/nyregion/trump-trial-hush-money-payments.html:1,https://www.nytimes.com:443/2024/05/04/opinion/trump-second-term-illiberalism.html:6,https://www.nytimes.com:443/section/obituaries:2,https://www.nytimes.com:443/2024/05/03/arts/television/jimmy-kimmel-donald-trump-trial.html:3,https://www.nytimes.com:443/2024/05/04/opinion/gaza-child-deaths.html:1,https://www.tlc.com:443/inside-tlc/TLC-Casting:7,https://www.nytimes.com:443/2024/05/03/us/abortion-rights-missouri-south-dakota.html:35,https://www.nytimes.com:443/news-event/weather-climate:2,https://www.nytimes.com:443/2024/05/04/world/europe/russia-soldiers-women.html:11,https://www.law.cornell.edu:443/supremecourt/text/74/700:8,https://www.usatoday.com:443/story/sports/mlb/2016/11/03/world-series-tv-television-ratings-chicago-cubs-cleveland-indians/93231896/:1,https://en.wikipedia.org:443/wiki/Boswell:1 2 3,https://www.nytimes.com:443/section/books/review?page=7:4,https://en.wikipedia.org:443/wiki/Arkansas_River:3 4 5 6 7,https://www.sportsbusinessjournal.com:443/Journal/Issues/2012/04/02/Media/Fox-channel.aspx:2,https://en.wikipedia.org:443/wiki/Powers_of_the_president_of_the_United_States:20,https://archive.curbed.com:443/2020/1/13/21026108/public-housing-faircloth-amendment-election-2020:1 2,https://www.nytimes.com:443/series/opinion-audio:4,https://news.gallup.com:443/topic/retirement.aspx:2 3 4,https://www.nytimes.com:443/section/opinion/sunday:2,https://en.wikipedia.org:443/wiki/National_Football_League:18,https://www.nytimes.com:443/2024/05/02/business/horse-racing-deaths-kentucky-derby.html:5,https://arxiv.org:443/abs/1607.04484:4 5,https://www.nytimes.com:443/:3,https://www.nytimes.com:443/2024/05/02/learning/word-of-the-day-rapport.html:1,https://www.nytimes.com:443/spotlight/nyt-events?page=2:1,https://www.cnn.com:443/2020/09/26/politics/supreme-court-conservative/index.html:6,https://www.gallup.com:443/394505/indicator-life-evaluation-index.aspx:1 2,https://www.nytimes.com:443/2024/05/04/business/energy-environment/tesla-electric-vehicles-supercharger.html:1,https://history.army.mil:443/books/wwii/persian/index.htm:5 6,https://www.nytimes.com:443/column/field-notes:1,https://www.nytimes.com:443/reviews/dining:1,https://www.nytimes.com:443/books/best-sellers/:5,https://www.nytimes.com:443/section/opinion/contributors:2,https://en.wikipedia.org:443/wiki/Henley_Royal_Regatta:6,https://www.nytimes.com:443/2024/05/04/world/europe/uk-rishi-sunak-conservatives-elections.html:2,https://www.nytimes.com:443/article/wedding-feature-submission-form.html:3,https://www.nytimes.com:443/2024/04/17/opinion/venezuela-oil-sanctions.html:2 3,https://www.businessinsider.com:443/s:2,https://www.nytimes.com:443/article/senate-races-2024-election.html:2,https://www.nytimes.com:443/section/health:8 9,https://www.bbc.co.uk:443/news/world-us-canada-55358342:1 2 3,https://en.wikipedia.org:443/wiki/History_of_the_United_States_(2008%E2%80%93present):33 34 35,https://en.wikipedia.org:443/wiki/History_of_the_United_States_(1945%E2%80%931964):28 29 30 31 32,https://www.nytimes.com:443/2013/01/12/opinion/is-this-the-afghan-wars-last-chapter.html?_r=3&amp;:3,https://www.sportsbusinessjournal.com:443/Subscribe/Subscription-Landing.aspx:2 3 4 5 6 7 8 9 10 11 12 13 14 15 16 17 18 19 20 21 22 23 24 25 26 27 28 29 30 31 32,https://en.wikipedia.org:443/wiki/Town_meeting:6,https://www.nytimes.com:443/section/magazine:2,https://www.nytimes.com:443/live/2024/05/04/us/biden-trump-campaign:1 2,https://www.nytimes.com:443/2024/04/18/nyregion/trump-trial-jury-hush-money.html:1,https://en.wikipedia.org:443/wiki/Culture_of_the_United_States:23 24 25,https://www.gallup.com:443/corporate/468077/media-center.aspx:1 2,https://www.nytimes.com:443/2024/05/02/arts/music/tiktok-universal-music-deal.html:5 6,https://www.nfl.com:443/standings/conference/2023/REG:2,https://en.wikipedia.org:443/wiki/Vietnam_War:40 41 42,https://en.wikipedia.org:443/wiki/ISSN_(identifier):1,https://www.nytimes.com:443/2024/04/27/opinion/left-right-happiness.html:3,https://www.nfl.com:443/teams/seattle-seahawks/:2 3 4,https://www.nytimes.com:443/international/:3,https://www.sportsbusinessjournal.com:443/Journal/Issues/2024/03/04.aspx:1 2,https://en.wikipedia.org:443/wiki/United_States_Public_Health_Service_Commissioned_Corps:8,https://en.wikipedia.org:443/wiki/Maternal_mortality_in_the_United_States:13 14 15 16 17 18 19 20 21 22 23 24 25 26 27 28 29 30 31 32 33 34,https://cooking.nytimes.com:443/recipes/1013611-rhubarb-upside-down-cake:1,https://www.theguardian.com:443/us-news/2020/aug/25/qanon-conspiracy-theory-explained-trump-what-is:5,https://www.packers.com:443/community/shareholders:1,https://en.wikipedia.org:443/wiki/List_of_mountains_of_the_United_States:14,https://cooking.nytimes.com:443/recipes/1022283-country-panzanella-with-watermelon-dressing:1,https://www.nytimes.com:443/news-event/trump-ny-hush-money-case:1 2,https://en.wikipedia.org:443/wiki/United_States_dollar:23 24,https://www.sportsbusinessjournal.com:443/Archive/Sections/International.aspx:3,https://www.nytimes.com:443/wirecutter/:4 5,https://www.businessinsider.com:443/real-estate:2,https://www.usatoday.com:443/story/sports/mlb/2013/08/11/fox-sports-1-versus-espn/2641247/:1,https://www.nytimes.com:443/issue/magazine/2024/04/12/the-41424-issue:1,https://www.tlc.com:443/shows/90-day-fiance-happily-ever-after/photo-galleries/90-day-fiance-happily-ever-after-couples-bios-season-8:11,https://cooking.nytimes.com:443/christmas:2,https://www.nytimes.com:443/section/us:7 8,https://www.nytimes.com:443/section/education:3 4,https://en.wikipedia.org:443/wiki/Hawaiian_home_land:3,https://www.tlc.com:443/:1,https://www.nytimes.com:443/section/reader-center:1,https://www.nytimes.com:443/by/liam-stack:2,https://www.nytco.com:443/notice-of-transparency-in-health-care-costs/:3,https://www.nytimes.com:443/spotlight/podcasts:12,https://en.wikipedia.org:443/wiki/Sports_in_Venezuela:5 6,https://www.nytimes.com:443/2024/04/26/us/politics/kristi-noem-dog-killing.html:2,https://www.nytimes.com:443/2024/05/04/us/politics/biden-insulin-voters-drugs.html:2 3,https://www.nytimes.com:443/2024/04/22/us/politics/israel-gaza-hamas-war.html:7,https://www.nytimes.com:443/section/opinion/editorials:3,https://www.commanders.com:443/news/commanders-agree-to-trade-de-montez-sweat-to-chicago-bears:3,https://www.sportsbusinessjournal.com:443/Articles/2023/10/23/mls-sets-attendance-record-for-season:1,https://en.wikipedia.org:443/wiki/Housing_in_the_United_States:2 3,https://www.purdue.edu:443/newsroom/releases/2016/Q3/purdue-university-sets-records-for-largest-enrollment-and-highest-graduation-rates-ever.html:8 9,https://en.wikipedia.org:443/wiki/Drug_Enforcement_Administration:24 25,https://www.nytimes.com:443/section/opinion/letters:3,https://www.nytimes.com:443/section/corrections?page=5:4,https://www.nytimes.com:443/interactive/2024/05/03/opinion/global-billionaires-tax.html:2,https://www.ncaa.org:443/sports/2021/4/21/division-ii-academics.aspx:10,https://www.nytimes.com:443/live/2024/01/19/world/israel-hamas-news/a-un-official-says-israeli-treatment-of-detainees-may-amount-to-torture?smid=url-share:14 15 16,https://www.wikidata.org:443/wiki/Q25161472:1,https://bolavip.com:443/en/info/privacy:9 10 11 12,https://www.nytimes.com:443/2024/05/03/opinion/us-africa-niger-chad.html:2,https://www.nytimes.com:443/section/magazine?page=8:5,https://www.nytimes.com:443/spotlight/connections-companion?page=4:1,https://www.usatoday.com:443/for-subscribers/:1,https://en.wikipedia.org:443/wiki/Race_and_maternal_health_in_the_United_States:10 11 12 13,https://www.nytimes.com:443/2023/11/21/dining/restaurant-review-bangkok-supper-club.html:2 3 4,https://www.wikidata.org:443/wiki/Q861654:1,https://www.nytimes.com:443/by/pamela-paul:1,https://www.wikidata.org:443/wiki/Q8319:1,https://www.nytimes.com:443/books/best-sellers/mass-market-monthly/:2,https://www.sbncollegehockey.com:443/high-school-hockey/2015/3/7/8167923/2015-minnesota-boys-high-school-total-attendance-record-135618:7,https://www.indycar.com:443/news/2022/02/02-22-internationaltv:1 2,https://www.nytimes.com:443/2024/04/29/realestate/renters-astoria-queens.html:1,https://en.wikipedia.org:443/wiki/College_basketball:23,https://en.wikipedia.org:443/wiki/Greenhouse_gas_emissions_by_the_United_States:8,https://www.battlefields.org:443/preserve/saved-land:4 5,https://cooking.nytimes.com:443/recipes/1024469-tomato-cheddar-toasts:3,https://en.wikipedia.org:443/wiki/American_exceptionalism:23,https://bolavip.com:443/en/info/terms-conditions:4 5 6 7 8,https://en.wikipedia.org:443/wiki/Baseball:18,https://cooking.nytimes.com:443/recipes/1016295-mint-julep:3,https://www.nytimes.com:443/2024/05/01/us/free-speech-campus-protests.html:6,https://en.wikipedia.org:443/wiki/American_Sign_Language:30 31 32 33,https://www.nytimes.com:443/section/learning:1 2 3,https://www.nytimes.com:443/2019/01/31/opinion/letters/letters-to-editor-new-york-times-women.html:4,https://www.nytimes.com:443/news-event/israel-hamas-gaza:5,https://www.nytimes.com:443/2017/11/24/opinion/vietnam-the-chemical-war.html?mtrref=www.google.ca&amp;assetType=opinion:2,https://www.usatoday.com:443/story/news/politics/2022/08/04/krysten-sinema-inflation-reduction-act-senator-democrats-vote/10234906002/:2 3,https://www.nytimes.com:443/spotlight/connections-companion:1,https://www.foodnetwork.com:443/:1,https://www.nytimes.com:443/section/arts/music:2,https://en.wikipedia.org:443/wiki/Democratic_Party_(United_States):57 58 59 60 61 62 63 64 65 66 67 68 69 70 71,https://en.wikipedia.org:443/wiki/Fenway_Park:11 12 13 14 15 16 17,https://www.fmfstateofmind.com:443/:9,https://www.nytimes.com:443/2024/05/03/arts/design/stanley-stellar-frieze-photography.html:2,https://www.nytimes.com:443/spotlight/nyt-events:1,https://nytlicensing.com:443/content/harvard-health-publishing/:4 5 6 7 8,https://www.nytimes.com:443/2024/04/29/learning/what-should-be-done-about-the-gender-pay-gap-in-sports.html:2,https://www.nytimes.com:443/sitemap/:1,https://en.wikipedia.org:443/wiki/Literacy_in_the_United_States:25,https://www.nytimes.com:443/2024/05/04/nyregion/columbia-protests-arrest-agitators-israel.html:2,https://www.ncaa.org:443/sports/2021/5/11/division-i-finances.aspx:10,https://cooking.nytimes.com:443/recipes/1023559-ina-gartens-bourbon-chocolate-pecan-pie:1,https://www.nytimes.com:443/2024/05/03/opinion/campus-protests-israel-gaza.html:9,https://www.nytimes.com:443/2022/02/11/sports/horse-racing/medina-spirit-kentucky-derby-necropsy.html?searchResultPosition=2:1,https://nevadasportsnet.com:443/news/reporters/mw-football-attendance-analysis-biggest-risers-and-fallers-year-over-year:3,https://en.wikipedia.org:443/wiki/Cold_War:45 46 47 48 49,https://en.wikipedia.org:443/wiki/Terrorism_in_the_United_States:66 67,https://www.nytimes.com:443/2024/05/04/opinion/fat-activist-freedom-health.html:6 7 8,https://www.nytimes.com:443/column/unhitched:1,https://www.nytimes.com:443/2023/04/14/us/politics/mike-pompeo-president-2024.html:2,https://en.wikipedia.org:443/wiki/Cycling_in_the_United_States:2 3,https://cooking.nytimes.com:443/:1,https://www.nytimes.com:443/interactive/2024/02/22/crosswords/puzzle-personality.html:2,https://www.bbc.co.uk:443/news/world-asia-35169478:3 4,https://www.ncaa.org:443/sb_output.aspx?form=28:5,https://www.nytimes.com:443/section/well:2,https://www.nytimes.com:443/section/world:8,https://www.nytimes.com:443/section/technology:3,https://en.wikipedia.org:443/wiki/Portal:Current_events:7 8 9,https://www.nytimes.com:443/2023/11/29/business/dealbook/kamala-harris-biden-voters.html:3,https://www.nytimes.com:443/news-event/2024-election:6 7,https://www.nytimes.com:443/section/business:2,https://www.usatoday.com:443/news/nation/:2,https://www.nytimes.com:443/2024/05/02/us/blast-mortar-brain-injury-military.html:2,https://www.nytimes.com:443/ca/:3,https://en.wikipedia.org:443/wiki/New_England:48,https://www.nytimes.com:443/section/arts/design:1,https://cooking.nytimes.com:443/recipes/1018626-eggs-benedict:4,https://www.nytimes.com:443/2024/05/02/style/central-park-hat-luncheon.html:5,https://www.nytimes.com:443/2024/04/01/fashion/craft-handmade-umbrella-italy.html:1,https://www.sbnation.com:443/2014/10/5/6916597/nba-new-tv-deal-espn-turner-24-billion:1,https://www.nytimes.com:443/section/travel:1,https://en.wikipedia.org:443/wiki/Southern_United_States:27 28 29 30 31 32 33 34 35 36 37 38,https://www.nytimes.com:443/2021/08/16/world/asia/afghanistan-taliban-video.html:3,https://www.patriots.com:443/cheerleaders/pat-patriot:1 2,https://en.wikipedia.org:443/wiki/New_England_Patriots:11 12 13 14,https://www.nytimes.com:443/2024/05/04/world/middleeast/cindy-mccain-gaza-famine.html:2,https://www.nytimes.com:443/2024/05/04/style/nonalcoholic-drinks-kids-mocktail.html:3,https://www.nytimes.com:443/spotlight/graphics?page=10:19,https://www.nytimes.com:443/by/emily-cochrane:1,https://www.businessinsider.com:443/personal-finance/mortgages:2,https://en.wikipedia.org:443/wiki/Cable_television:6 7 8 9 10 11 12 13 14 15,https://www.nytimes.com:443/spotlight/visual-investigations:5,https://www.nytimes.com:443/section/science:5,https://en.wikipedia.org:443/wiki/War_in_Afghanistan_(2001%E2%80%932021):108 109 110 111 112 113,https://www.nytimes.com:443/2024/05/03/opinion/nuclear-power-energy.html:3,https://www.nytimes.com:443/section/health?page=7:16 17 18,https://en.wikipedia.org:443/wiki/Great_Recession_in_the_United_States:5 6,https://en.wikipedia.org:443/wiki/Prescription_drug_prices_in_the_United_States:16 17 18 19 20 21 22 23 24 25 26 27 28 29,https://www.nytimes.com:443/section/sports:1,https://www.nytimes.com:443/interactive/2024/05/03/us/ucla-protests-encampment-violence.html:3,https://www.usatoday.com:443/story/sports/soccer/2017/02/02/nwsl-matches-will-be-shown-on-lifetime-each-saturday/97394336/:2,https://news.gallup.com:443/vault/203270/gallup-vault-football-rise-spectator-sport.aspx:2 3 4,https://www.nytimes.com:443/2024/04/30/learning/graphs.html:2,https://www.nytimes.com:443/2024/04/27/us/politics/trump-trial-fact-check.html:5,https://en.wikipedia.org:443/wiki/Tribal_sovereignty_in_the_United_States:11 12 13,https://www.nytimes.com:443/2024/04/02/world/middleeast/gaza-al-shifa-hospital.html:5,https://www.nytimes.com:443/section/nyregion:1,https://en.wikipedia.org:443/wiki/Sports_in_Yemen:10,https://www.businessinsider.com:443/a-timeline-of-trumps-efforts-to-overturn-the-2020-election-2021-10:5 6,https://www.patriots.com:443/news/check-out-the-2016-patriots-color-rush-jerseys-270621:1 2 3 4 5,https://www.nytimes.com:443/2024/04/14/fashion/vintage-watches-reissued.html:3 4,https://advertising.nytimes.com:443/:1,https://www.nytimes.com:443/puzzles/spelling-bee:1,https://www.nytimes.com:443/live/2024/05/04/world/israel-gaza-war-hamas:13 14,https://www.nytimes.com:443/section/opinion:4,https://cooking.nytimes.com:443/topics/our-best-pasta-recipes:1,https://news.gallup.com:443/poll/224864/football-americans-favorite-sport-watch.aspx:2 3 4 5 6,https://www.nytimes.com:443/section/food:1,https://www.nytimes.com:443/2024/04/20/health/seniors-home-equity-mortgages.html:3 4 5,https://www.nytimes.com:443/trending/:3,https://www.nytimes.com:443/2024/05/03/style/modern-love-we-didnt-know-it-was-the-last-time.html:1,https://www.ft.com:443/content/03cc24ca-dc69-4bd6-8f2d-7509b0f6b6f1:2 3 4 5 6 7 8 9,https://www.nytimes.com:443/video:1,https://www.gallup.com:443/corporate/216134/media-inquiries.aspx:1 2,https://en.wikipedia.org:443/wiki/Sergeant_at_Arms_of_the_United_States_Senate:5,https://www.nytimes.com:443/2024/05/03/books/cj-sansom-dead.html:2,https://www.nytimes.com:443/live/2024/05/02/us/biden-trump-campaign:43 44,https://www.nytimes.com:443/2005/09/18/opinion/conventional-wisdom.html:1,https://www.nytimes.com:443/section/nyregion?page=4:2 3,https://www.nytimes.com:443/column/op-docs:5,https://nytlicensing.com:443/:3 4 5 6,https://en.wikipedia.org:443/wiki/Forbes:4 5,https://www.nytimes.com:443/subscription/home-delivery:1 2,https://www.nytimes.com:443/gift-articles:1,https://www.nytimes.com:443/column/global-health:1,https://www.nytimes.com:443/newsletters:1,https://www.nytimes.com:443/spotlight/nytimesineducation:4 5 6,https://www.nytimes.com:443/section/arts/television:4,https://www.nytimes.com:443/live/2024/05/04/us/college-campus-protests:9,https://cooking.nytimes.com:443/recipes/1024760-chocolate-layer-cake:2,https://www.nytimes.com:443/section/opinion?page=5:7 8,https://www.wikidata.org:443/wiki/Q159821:2,https://www.nytimes.com:443/interactive/2023/us/politics/presidential-candidates-2024.html:3,https://en.wikipedia.org:443/wiki/Carlos_Bocanegra:3 4 5 6 7,https://en.wikipedia.org:443/wiki/American_Revolution:39 40 41 42,https://www.tlc.com:443/weddings/top-trends-for-spring-wedding-2024:5,https://www.nytimes.com:443/section/realestate:1,https://stmarysmusings.sbnation.com:443/:3,https://www.nytimes.com:443/section/t-magazine:3,https://www.nytimes.com:443/2024/05/04/nyregion/trump-trial-scandals-testimony.html:1,https://en.wikipedia.org:443/wiki/Soccer_in_the_United_States:19 20,https://en.wikipedia.org:443/wiki/Sports_in_India:32 33,https://www.nytimes.com:443/section/fashion/weddings:1,https://www.nfl.com:443/teams/philadelphia-eagles/:2 3,https://www.nytimes.com:443/2024/05/02/opinion/israel-saudi-arabia.html:4,https://www.nfl.com:443/teams/indianapolis-colts/:2 3 4,https://www.nytimes.com:443/interactive/2021/07/07/opinion/minimum-corporate-tax.html:8,https://www.nytimes.com:443/2009/01/05/opinion/05krugman.html:2,https://www.nytimes.com:443/2017/06/26/health/undocumented-immigrants-health-care.html:2,https://en.wikipedia.org:443/wiki/Boston:23 24,https://www.nytimes.com:443/2024/05/03/theater/the-miser-review-brooklyn.html:1,https://www.nytimes.com:443/spotlight/podcasts?page=6:20,https://www.nytimes.com:443/subscription:1 2,https://www.patriots.com:443/news/ben-coates-elected-to-patriots-hall-of-fame-140866:1 2 3 4 5,https://www.nytimes.com:443/2024/05/04/world/europe/sadiq-khan-london-mayor-results.html:2,https://www.nytimes.com:443/2024/05/02/arts/design/petrit-halilaj-kosovo-met-roof.html:16,https://www.nytimes.com:443/section/arts/dance:3,https://www.nytimes.com:443/video/us/100000007348445/breonna-taylor-death-cops.html:4,https://www.nytimes.com:443/2021/07/07/style/how-the-french-manicure-made-its-comeback.html:2,https://www.businessinsider.com:443/fastest-growing-sport-in-america-2011-9:4 5,https://en.wikipedia.org:443/wiki/Education_in_the_United_States:56 57 58 59 60 61 62 63 64 65,https://www.nytimes.com:443/video/op-docs:3,https://www.nytimes.com:443/2024/04/18/t-magazine/chalet-des-iles-paris-restaurant.html:1 2,https://www.nytimes.com:443/section/opinion/columnists:3,https://en.wikipedia.org:443/wiki/Environmental_issues_in_the_United_States:22,https://en.wikipedia.org:443/wiki/Supreme_Court_of_the_United_States:59 60 61 62 