account account-0 28074 https://www.nytimes.com:443/interactive/2018/08/25/opinion/sunday/student-debt-loan-default-college.html:2 3,https://www.nytimes.com:443/2023/11/21/dining/restaurant-review-bangkok-supper-club.html?rref=collection%2Fcollection%2Frestaurant-guide:5 6,https://www.nytimes.com:443/video/us/100000007348445/breonna-taylor-death-cops.html:5 6 7 8 9,https://www.nytimes.com:443/crosswords:2,https://en.wikipedia.org:443/wiki/International_rankings_of_the_United_States:3 4 5 6,https://www.nytimes.com:443/2024/05/02/style/central-park-hat-luncheon.html:6 7,https://en.wikipedia.org:443/wiki/WNBA%27s_Top_15_Team:3 4,https://commons.wikimedia.org:443/wiki/Category:Sports_in_Ecuador:1,https://www.nytimes.com:443/2024/03/30/opinion/abortion-drug-supreme-court.html:38 39,https://www.packers.com:443/community/shareholders:2 3 4 5,https://en.wikipedia.org:443/wiki/National_Boxing_Association:9 10,https://en.wikipedia.org:443/wiki/History_of_the_United_States_(2008%E2%80%93present):39 40 41 42 43 44 45 46 47 48,https://www.nytimes.com:443/live/2024/05/04/us/college-campus-protests:10 11,https://www.nytimes.com:443/2024/05/02/us/politics/abortion-ballot-measures-2024.html:34 35,https://en.wikipedia.org:443/wiki/Basketball_in_the_United_States:1 2,https://en.wikipedia.org:443/wiki/MLS:27 28,https://en.wikipedia.org:443/wiki/United_States_Backgammon_Federation:1 2,https://www.nytimes.com:443/2024/04/18/nyregion/trump-trial-jury-hush-money.html:2 3,https://en.wikipedia.org:443/wiki/Fenway_Park:19 20 21,https://en.wikipedia.org:443/wiki/Sports_in_India:35 36 37 38,https://www.nytimes.com:443/spotlight/visual-investigations:6 7 8,https://nytlicensing.com:443/content/harvard-health-publishing/:9 10 11 12,https://en.wikipedia.org:443/wiki/Rugby_union_at_the_Summer_Olympics:2 3,https://en.wikipedia.org:443/wiki/Powers_of_the_president_of_the_United_States:22 23 24 25 26 27,https://en.wikipedia.org:443/wiki/Cycling_in_the_United_States:5 6,https://www.nytimes.com:443/2009/01/05/opinion/05krugman.html:3 4,https://en.wikipedia.org:443/wiki/Boston:27 28 29 30 31,https://en.wikipedia.org:443/wiki/Environmental_issues_in_the_United_States:27 28 29 30,https://en.wikipedia.org:443/wiki/Soccer_in_the_United_States:22 23 24 25 26 27 28,https://en.wikipedia.org:443/wiki/Louise_Suggs:2 3,https://www.nytimes.com:443/interactive/2024/05/03/opinion/global-billionaires-tax.html:3 4 5,https://www.azcentral.com:443/story/sports/nfl/cardinals/2015/09/06/nfls-dynasties-decade/71605710/:3,https://en.wikipedia.org:443/wiki/List_of_current_United_States_district_judges:9 10,https://en.wikipedia.org:443/wiki/Town_meeting:7 8 9 10,https://www.nytimes.com:443/2024/05/03/us/abortion-rights-missouri-south-dakota.html:36 37,https://en.wikipedia.org:443/wiki/Time_in_the_United_States:3 4,https://en.wikipedia.org:443/wiki/Sports_in_Kentucky:9 10,https://www.nytimes.com:443/2024/04/30/learning/graphs.html:3 4,https://www.nytimes.com:443/section/style:2,https://en.wikipedia.org:443/wiki/Snowboarding:13 14 15 16 17,https://commons.wikimedia.org:443/wiki/Commons:Upload:1,https://www.nytimes.com:443/2024/04/17/opinion/venezuela-oil-sanctions.html:4 5,https://www.nytimes.com:443/2023/11/21/dining/restaurant-review-bangkok-supper-club.html:5 6,https://www.theguardian.com:443/sport/nhl:4 5,https://en.wikipedia.org:443/wiki/United_States_at_the_FIFA_Confederations_Cup:1 2,https://en.wikipedia.org:443/wiki/File:Commons-logo.svg:8 9,https://www.wired.com:443/2016/08/olympic-cities-everywhere/:5,https://en.wikipedia.org:443/wiki/Constitution_of_the_United_States:35 36 37 38 39 40,https://www.businessinsider.com:443/personal-finance/mortgages:3 4 5 6 7 8 9 10 11 12 13 14 15 16 17,https://en.wikipedia.org:443/wiki/Template_talk:United_States_topics:4 5 6,https://www.nytimes.com:443/2024/05/02/arts/music/tiktok-universal-music-deal.html:8 9 10,https://en.wikipedia.org:443/wiki/Northern_United_States:5 6,https://en.wikipedia.org:443/wiki/USA_Cricket:4 5,https://www.nytimes.com:443/2024/05/03/arts/television/jimmy-kimmel-donald-trump-trial.html:4 5,https://www.nytimes.com:443/2024/05/04/opinion/gaza-child-deaths.html:2 3,https://en.wikipedia.org:443/wiki/Maternal_mortality_in_the_United_States:39 40 41 42 43 44 45,https://www.usatoday.com:443/story/sports/winter-olympics-2018/2018/02/13/medalists-2018-winter-olympics-get-precious-keepsake-and-medal/332267002/:3,https://en.wikipedia.org:443/wiki/United_States_at_the_Universiade:1 2,https://en.wikipedia.org:443/wiki/Arkansas_River:8 9,https://www.usatoday.com:443/story/news/politics/2022/08/04/krysten-sinema-inflation-reduction-act-senator-democrats-vote/10234906002/:4,https://en.wikipedia.org:443/wiki/Hawaiian_home_land:4 5,https://www.cnn.com:443/2020/09/26/politics/supreme-court-conservative/index.html:7 8 9 10 11 12 13 14 15 16 17 18,https://commons.wikimedia.org:443/wiki/Category:Bodybuilding_in_the_United_States:1,https://en.wikipedia.org:443/wiki/National_Reconnaissance_Office:20 21 22 23 24,https://www.bbc.co.uk:443/news/world-us-canada-55358342:4,https://www.nytimes.com:443/2024/05/04/us/politics/biden-insulin-voters-drugs.html:5 6,https://www.sportsbusinessjournal.com:443/Daily/Issues/2024/04/29.aspx:3 4 5 6,https://en.wikipedia.org:443/wiki/Template_talk:Sports_governing_bodies_in_the_United_States:1 2,https://en.wikipedia.org:443/wiki/United_States_Public_Health_Service_Commissioned_Corps:10 11,https://www.saturdaydownsouth.com:443/sports/ranking-top-25-rivalries-college-sports-2023/:3,https://www.nytimes.com:443/2024/05/03/theater/the-miser-review-brooklyn.html:2 3,https://en.wikipedia.org:443/wiki/History_of_the_United_States_(1849%E2%80%931865):41 42 43 44,https://en.wikipedia.org:443/wiki/Sports_in_Uzbekistan:6 7,https://en.wikipedia.org:443/wiki/Sports_in_Namibia:3 4,https://en.wikipedia.org:443/wiki/U.S._Squash:3 4 5,https://en.wikipedia.org:443/wiki/Sports_in_Poland:7 8,https://www.nytimes.com:443/2024/05/04/world/europe/russia-soldiers-women.html:12 13 14,https://www.sportsbusinessjournal.com:443/Articles/2023/10/23/mls-sets-attendance-record-for-season:2 3 4 5,https://en.wikipedia.org:443/wiki/Sports_in_Venezuela:7 8,https://www.nytimes.com:443/interactive/2024/03/28/travel/things-to-do-mumbai.html:8 9,https://en.wikipedia.org:443/wiki/New_England:49 50 51 52,https://www.nytimes.com:443/2024/04/10/style/rishi-sunak-adidas-sambas.html:4 5 6,https://www.nytimes.com:443/2024/04/27/us/politics/trump-trial-fact-check.html:6 7,https://en.wikipedia.org:443/wiki/Speaker_of_the_United_States_House_of_Representatives:8 9 10,https://en.wikipedia.org:443/wiki/Carlos_Bocanegra:8 9 10,https://en.wikipedia.org:443/wiki/Forbes:6 7 8,https://wtop.com:443/virginia/2020/01/virginia-becomes-38th-state-to-ratify-equal-rights-amendment-but-it-may-be-too-late/:4 5,https://en.wikipedia.org:443/wiki/Education_in_the_United_States:67 68 69 70 71,https://commons.wikimedia.org:443/wiki/Category:Sports_in_Cura%C3%A7ao:1,https://www.nytimes.com:443/2024/05/01/magazine/catholic-cousin-annulment-ethics.html:3 4,https://www.nytimes.com:443/2024/04/01/fashion/craft-handmade-umbrella-italy.html:2 3,https://en.wikipedia.org:443/wiki/USA_Cycling:7 8,https://www.nytimes.com:443/es/:10 11,https://en.wikipedia.org:443/wiki/Public_utilities_commission:1 2,https://www.usatoday.com:443/story/sports/mlb/2016/11/03/world-series-tv-television-ratings-chicago-cubs-cleveland-indians/93231896/:2,https://en.wikipedia.org:443/wiki/Fox_Sports_1:10 11,https://www.nytimes.com:443/2023/11/29/business/dealbook/kamala-harris-biden-voters.html:4 5,https://www.nytimes.com:443/section/health?page=7:19,https://en.wikipedia.org:443/wiki/Francis_Olympic_Field:5 6,https://en.wikipedia.org:443/wiki/National_monument_(United_States):3 4,https://en.wikipedia.org:443/wiki/Democratic_Party_(United_States):73 74 75 76 77,https://en.wikipedia.org:443/wiki/List_of_mountain_peaks_of_the_United_States:6 7,https://en.wikipedia.org:443/wiki/Sports_teams_in_Virginia:4 5,https://www.nytimes.com:443/interactive/2024/05/03/us/ucla-protests-encampment-violence.html:4 5,https://www.nytimes.com:443/live/2024/05/02/us/biden-trump-campaign:46 47,https://en.wikipedia.org:443/wiki/Bodybuilding_in_the_United_States:4 5,https://www.nytimes.com:443/2024/05/03/nyregion/trump-trial-hope-hicks-takeaways.html:10 11 12,https://en.wikipedia.org:443/wiki/2023_Big_Ten_Conference_football_season:26 27,https://en.wikipedia.org:443/wiki/Association_of_Summer_Olympic_International_Federations:2 3,https://en.wikipedia.org:443/wiki/Sports_in_France:4 5,https://www.nytimes.com:443/2024/05/03/world/europe/campus-protests-rorschach-test.html:9 10,https://www.themarshallproject.org:443/2022/06/14/what-did-fbi-data-say-about-crime-in-2021-it-s-too-unreliable-to-tell:2 3 4,https://en.wikipedia.org:443/wiki/The_Washington_Post:24 25 26 27,https://www.nytimes.com:443/section/books/review?page=7:6 7,https://www.nytimes.com:443/books/best-sellers/:6,https://www.nytimes.com:443/2024/05/02/learning/word-of-the-day-rapport.html:2 3,https://www.bbc.co.uk:443/news/world-asia-35169478:5,https://www.theguardian.com:443/us-news/2020/aug/25/qanon-conspiracy-theory-explained-trump-what-is:7 8 9 10,https://www.law.cornell.edu:443/supremecourt/text/74/700:11 12 13 14 15 16 17 18 19 20,https://www.businessinsider.com:443/s:3,https://en.wikipedia.org:443/wiki/Literacy_in_the_United_States:28 29 30 31,https://en.wikipedia.org:443/wiki/Vietnam_War:64 65 66 67 68 69 70 71,https://en.wikipedia.org:443/wiki/Sports_in_Sierra_Leone:3 4,https://www.nytimes.com:443/:4 5,https://en.wikipedia.org:443/wiki/Professional_Disc_Golf_Association:2 3,https://www.nytimes.com:443/2024/05/04/style/nonalcoholic-drinks-kids-mocktail.html:4 5,https://bleacherreport.com:443/articles/2748217-gsp-vacates-belt-champion-robert-whittaker-will-face-luke-rockhold-at-ufc-221:1,https://en.wikipedia.org:443/wiki/Gymnastics_in_the_United_States:16 17,https://www.nytimes.com:443/spotlight/graphics?page=10:20 21,https://en.wikipedia.org:443/wiki/History_of_the_United_States_(1945%E2%80%931964):35 36 37 38,https://en.wikipedia.org:443/wiki/Consolidated_city-county:7 8,https://www.theguardian.com:443/type/video+tone/comment:1 2,https://en.wikipedia.org:443/wiki/War_in_Afghanistan_(2001%E2%80%932021):125 126 127 128 129 130 131 132 133 134,https://en.wikipedia.org:443/wiki/Inter_Miami:20 21,https://nytlicensing.com:443/license-our-content/:5 6,https://en.wikipedia.org:443/wiki/United_States_Polo_Association:5 6,https://en.wikipedia.org:443/wiki/Fashion_in_the_United_States:6 7 8,https://en.wikipedia.org:443/wiki/United_States_Attorney:5 6,https://www.sportsbusinessjournal.com:443/Archive/Sections/International.aspx:4 5 6 7,https://en.wikipedia.org:443/wiki/Henley_Royal_Regatta:9 10,https://en.wikipedia.org:443/wiki/Municipal_council:7 8 9 10 11,https://en.wikipedia.org:443/wiki/Major_Arena_Soccer_League:6 7,https://en.wikipedia.org:443/wiki/Mayoralty_in_the_United_States:2 3,https://www.nytimes.com:443/2024/05/04/us/kentucky-derby-race-photos.html:2 3,https://www.nytimes.com:443/2024/05/03/style/modern-love-we-didnt-know-it-was-the-last-time.html:2 3,https://en.wikipedia.org:443/wiki/United_States_Reports:4 5,https://www.nytimes.com:443/2024/04/26/us/politics/kristi-noem-dog-killing.html:3 4,https://www.nytimes.com:443/2024/05/04/opinion/alexandria-ocasio-cortez.html:6 7 8,https://en.wikipedia.org:443/wiki/Sports_in_Armenia:6 7,https://www.nytimes.com:443/live/2024/05/03/world/israel-gaza-war-hamas:12 13,https://nytlicensing.com:443/timesdigest/:7 8 9,https://en.wikipedia.org:443/wiki/United_States_men%27s_national_soccer_team:14 15,https://en.wikipedia.org:443/wiki/Drug_Enforcement_Administration:31 32 33 34,https://en.wikipedia.org:443/wiki/National_League_(baseball):27 28 29,https://en.wikipedia.org:443/wiki/American_Sign_Language:37 38 39 40 41 42,https://www.theguardian.com:443/sport/2018/jan/23/aly-raisman-olympic-committee-larry-nassar-abuse-case:17 18,https://en.wikipedia.org:443/wiki/Category:United_States:1 2,https://www.nytimes.com:443/2024/05/04/business/energy-environment/tesla-electric-vehicles-supercharger.html:2 3 4,https://www.usatoday.com:443/for-subscribers/:3,https://en.wikipedia.org:443/wiki/MLB_Network:8 9,https://en.wikipedia.org:443/wiki/Coterminous_municipality:1 2,https://en.wikipedia.org:443/wiki/Municipal_charter:1 2,https://www.nytimes.com:443/section/world:10,https://www.nytimes.com:443/2024/05/04/nyregion/trump-trial-scandals-testimony.html:2 3,https://www.usatoday.com:443/story/sports/mlb/2013/08/11/fox-sports-1-versus-espn/2641247/:2,https://www.nytimes.com:443/2023/04/14/us/politics/mike-pompeo-president-2024.html:3 4,https://www.nytimes.com:443/2024/04/12/fashion/weddings/elena-bauer-joshua-fagel-wedding.html:3 4,https://en.wikipedia.org:443/wiki/Articles_of_Confederation:18 19 20 21,https://www.nytimes.com:443/2024/05/03/arts/design/stanley-stellar-frieze-photography.html:4 5,https://commons.wikimedia.org:443/wiki/Category:Sports_in_the_United_States:1,https://www.nytimes.com:443/2024/05/04/opinion/chronic-illness-vaccines-long-covid.html:4 5,https://en.wikipedia.org:443/wiki/Spanish%E2%80%93American_War:35 36 37 38 39 40 41,https://www.nytimes.com:443/article/wedding-feature-submission-form.html:4 5 6,https://nytlicensing.com:443/:7 8 9,https://www.businessinsider.com:443/real-estate:3 4,https://www.nytimes.com:443/2022/02/11/sports/horse-racing/medina-spirit-kentucky-derby-necropsy.html?searchResultPosition=2:3 4,https://commons.wikimedia.org:443/wiki/Category:Sports_in_Finland:2,https://en.wikipedia.org:443/wiki/Category:Use_mdy_dates_from_October_2023:9 10 11,https://www.nytimes.com:443/2017/11/24/opinion/vietnam-the-chemical-war.html?mtrref=www.google.ca&amp;assetType=opinion:3 4,https://www.nytimes.com:443/2024/05/04/world/europe/sadiq-khan-london-mayor-results.html:3 4,https://en.wikipedia.org:443/wiki/Sports_in_Uruguay:3 4,https://www.businessinsider.com:443/guides/tech:21 22 23,https://en.wikipedia.org:443/wiki/Disc_golf_in_the_United_States:2 3,https://nytlicensing.com:443/magazines/:3 4,https://en.wikipedia.org:443/wiki/West_Coast_of_the_United_States:7 8 9 10,https://en.wikipedia.org:443/wiki/Outline_of_the_history_of_the_United_States:12 13,https://www.nytimes.com:443/article/senate-races-2024-election.html:3 4,https://www.sportsbusinessjournal.com:443/Journal/Issues/2012/04/02/Media/Fox-channel.aspx:3 4 5 6,https://en.wikipedia.org:443/wiki/Spectrum_Sports:2 3,https://www.nytimes.com:443/2023/09/07/climate/climate-forward-event.html:3 4,https://en.wikipedia.org:443/wiki/Olympic_Games:21 22,https://www.nytimes.com:443/2024/04/29/learning/what-should-be-done-about-the-gender-pay-gap-in-sports.html:4 5,https://en.wikipedia.org:443/wiki/Columbia_(personification):5 6 7,https://www.nytimes.com:443/2024/05/03/opinion/us-africa-niger-chad.html:3 4,https://www.nytimes.com:443/section/magazine?page=8:6,https://commons.wikimedia.org:443/wiki/Category:Awards_associated_with_sports_of_the_United_States:1,https://en.wikipedia.org:443/wiki/United_States_Declaration_of_Independence:48 49 50 51 52 53 54,https://www.nytimes.com:443/by/pamela-paul:2,https://en.wikipedia.org:443/wiki/Summer_Olympic_Games:5 6 7 8 9,https://www.nytimes.com:443/2024/05/04/world/europe/uk-rishi-sunak-conservatives-elections.html:3 4,https://en.wikipedia.org:443/wiki/U.S._state:14 15 16,https://en.wikipedia.org:443/wiki/Sports_in_Maryland:28 29,https://www.nytimes.com:443/2024/04/14/fashion/vintage-watches-reissued.html:5 6,https://www.wikidata.org:443/wiki/Q8319:2,https://en.wikipedia.org:443/wiki/Housing_in_the_United_States:5 6 7,https://www.nytimes.com:443/news-event/israel-hamas-gaza:6,https://www.nytimes.com:443/2024/04/29/realestate/renters-astoria-queens.html:2 3,https://www.independent.co.uk:443/sport/us-sport/nba/draft-2020-what-time-start-uk-b1725070.html:1,https://www.wikidata.org:443/wiki/Q861654:2,https://commons.wikimedia.org:443/wiki/Category:War_in_Afghanistan_(2001%E2%80%932021):4,https://en.wikipedia.org:443/wiki/American_League:4 5,https://www.nytimes.com:443/wirecutter/:13 14 15,https://commons.wikimedia.org:443/wiki/Category:Spectrum_Sports:1,https://www.nytimes.com:443/2024/05/04/opinion/fat-activist-freedom-health.html:10 11 12,https://www.theguardian.com:443/sport/2017/aug/19/will-mcgregor-v-mayweather-save-american-boxing-or-bury-it?CMP=share_btn_link:5,https://www.nytimes.com:443/2019/06/19/us/newsom-native-american-apology.html:7 8 9,https://en.wikipedia.org:443/wiki/United_States_Minor_Outlying_Islands:6 7,https://www.businessinsider.com:443/a-timeline-of-trumps-efforts-to-overturn-the-2020-election-2021-10:7 8 9,https://www.battlefields.org:443/preserve/saved-land:6 7 8 9 10 11,https://en.wikipedia.org:443/wiki/American_Revolution:44 45 46 47 48 49 50,https://en.wikipedia.org:443/wiki/Federal_tribunals_in_the_United_States:3 4,https://www.nytimes.com:443/2024/04/20/health/seniors-home-equity-mortgages.html:6 7 8,https://en.wikipedia.org:443/wiki/New_England_Patriots:21 22,https://www.nytimes.com:443/2014/11/11/technology/obama-net-neutrality-fcc.html:7 8,https://en.wikipedia.org:443/wiki/List_of_U.S._states_and_territories_by_life_expectancy:4 5 6,https://www.nytimes.com:443/live/2024/05/04/us/biden-trump-campaign:3 4,https://en.wikipedia.org:443/wiki/Sports_in_Georgia_(country):10 11,https://www.nytimes.com:443/2024/05/02/opinion/israel-saudi-arabia.html:5 6,https://en.wikipedia.org:443/wiki/Sports_in_Arizona:3 4,https://www.nytimes.com:443/section/arts/music:3,https://en.wikipedia.org:443/wiki/List_of_mountains_of_the_United_States:16 17,https://en.wikipedia.org:443/wiki/Uniform_act:3 4,https://en.wikipedia.org:443/wiki/Iroquois:51 52 53 54 55 56 57 58 59 60,https://www.nytimes.com:443/2024/05/03/books/cj-sansom-dead.html:3 4,https://en.wikipedia.org:443/wiki/National_Federation_of_State_High_School_Associations:2 3,https://www.nytimes.com:443/2024/04/27/opinion/left-right-happiness.html:4 5,https://en.wikipedia.org:443/wiki/Sports_in_Samoa:1 2,https://commons.wikimedia.org:443/wiki/Category:Sports_in_Maryland:4,https://en.wikipedia.org:443/wiki/Sports_in_Syria:9 10 11,https://en.wikipedia.org:443/wiki/Sports_in_the_United_States:18 19 20 21,https://en.wikipedia.org:443/wiki/National_Football_League:20 21 22 23 24 25 26,https://en.wikipedia.org:443/wiki/Independent_city_(United_States):1 2,https://en.wikipedia.org:443/wiki/USA_Water_Ski_%26_Wake_Sports:1 2,https://en.wikipedia.org:443/wiki/Sports_in_American_Samoa:3 4,https://en.wikipedia.org:443/wiki/Race_and_maternal_health_in_the_United_States:14 15 16 17,https://en.wikipedia.org:443/wiki/USA_Baseball:33 34,https://www.nytimes.com:443/2024/04/24/podcasts/laufey-gen-zs-jazz-icon-sings-for-anxious-generation.html:7 8,https://en.wikipedia.org:443/wiki/Template_talk:Americas_topic:1 2,https://en.wikipedia.org:443/wiki/Sports_in_South_Carolina:7 8,https://www.nytimes.com:443/2024/04/24/us/palestinian-family-gaza-war-death.html:9 10,https://www.nytimes.com:443/2024/04/18/t-magazine/chalet-des-iles-paris-restaurant.html:3 4,https://en.wikipedia.org:443/wiki/Special_district_(United_States):4 5 6 7 8 9 10 11 12 13,https://en.wikipedia.org:443/wiki/Southern_United_States:42 43 44 45 46,https://en.wikipedia.org:443/wiki/Beach_volleyball:8 9,https://www.nytimes.com:443/live/2024/05/04/world/israel-gaza-war-hamas:15 16,https://en.wikipedia.org:443/wiki/Sports_in_Papua_New_Guinea:2 3,https://www.nytimes.com:443/interactive/2024/04/25/nyregion/trump-trial-hush-money-payments.html:2 3,https://en.wikipedia.org:443/wiki/Prescription_drug_prices_in_the_United_States:30 31 32 33 34 35 36 37 38,https://en.wikipedia.org:443/wiki/Colonial_history_of_the_United_States:31 32 33,https://www.nytimes.com:443/2019/01/31/opinion/letters/letters-to-editor-new-york-times-women.html:6 7 8,https://en.wikipedia.org:443/wiki/Sports_in_Ghana:22 23,https://www.nytimes.com:443/section/business:3,https://en.wikipedia.org:443/wiki/Indiana:27 28 29 30 31 32 33,https://en.wikipedia.org:443/wiki/Antisemitism_in_the_United_States:20 21 22,https://www.usatoday.com:443/news/nation/:3,https://www.nytimes.com:443/interactive/2021/07/07/opinion/minimum-corporate-tax.html:9 10,https://en.wikipedia.org:443/wiki/IndyCar_Series:21 22 23,https://www.nytimes.com:443/2024/05/03/opinion/nuclear-power-energy.html:4 5,https://en.wikipedia.org:443/wiki/Jack_Nicklaus:20 21 22,https://en.wikipedia.org:443/wiki/United_States_dollar:25 26 27 28 29 30 31 32 33 34 35,https://en.wikipedia.org:443/wiki/Ice_hockey:8 9 10,https://en.wikipedia.org:443/wiki/United_States_Lifesaving_Association:1 2,https://commons.wikimedia.org:443/wiki/Category:Sports_in_Panama:2,https://en.wikipedia.org:443/wiki/Volleyball:9 10,https://en.wikipedia.org:443/wiki/Sports_in_Finland:4 5,https://en.wikipedia.org:443/wiki/Sports_in_Brunei:15 16,https://en.wikipedia.org:443/wiki/Sports_in_El_Salvador:10 11,https://en.wikipedia.org:443/wiki/Template:Sports_in_the_United_States:1 2,https://en.wikipedia.org:443/wiki/Timeline_of_United_States_inventions_(after_1991):5 6 7,https://www.nytimes.com:443/interactive/2023/us/politics/presidential-candidates-2024.html:4 5,https://en.wikipedia.org:443/wiki/Supreme_Court_of_the_United_States:64 65 66 67 68 69,https://www.nytimes.com:443/interactive/2024/nyregion/trump-manhattan-criminal-trial-witnesses.html:2 3,https://en.wikipedia.org:443/wiki/Baseball:20 21 22,https://en.wikipedia.org:443/wiki/Sports_in_Ethiopia:4 5,https://en.wikipedia.org:443/wiki/Sports_in_Estonia:6 7,https://en.wikipedia.org:443/wiki/Timeline_of_United_States_inventions:1 2,https://en.wikipedia.org:443/wiki/Federal_law_enforcement_in_the_United_States:9 10 11 12 13 14,https://en.wikipedia.org:443/wiki/Cold_War:64 65 66 67 68 69 70,https://www.usatoday.com:443/story/sports/soccer/2017/02/02/nwsl-matches-will-be-shown-on-lifetime-each-saturday/97394336/:3,https://en.wikipedia.org:443/wiki/Americans:27 28,https://www.nytimes.com:443/2017/06/26/health/undocumented-immigrants-health-care.html:3 4,https://en.wikipedia.org:443/wiki/Terrorism_in_the_United_States:71 72 73 74 75 76 77 78,https://www.nytimes.com:443/2021/08/16/world/asia/afghanistan-taliban-video.html:5 6,https://en.wikipedia.org:443/wiki/Immigrant_health_care_in_the_United_States:55 56,https://en.wikipedia.org:443/wiki/Sports_in_Yemen:11 12,https://en.wikipedia.org:443/wiki/Sports_in_Cuba:4 5,https://en.wikipedia.org:443/wiki/Comparison_of_U.S._state_and_territory_governments:8 9,https://www.nytimes.com:443/2024/05/02/business/horse-racing-deaths-kentucky-derby.html:6 7,https://en.wikipedia.org:443/wiki/Wikipedia:File_upload_wizard:1 2 3 4 5 6 7 8 9 10,https://www.cnn.com:443/2020/08/24/politics/muslim-ice-detainees-pork-meals/index.html:5 6 7 8 9 10 11 12 13 14 15 16,https://en.wikipedia.org:443/wiki/Sports_in_Washington:8 9,https://en.wikipedia.org:443/wiki/American_exceptionalism:25 26 27 28,https://www.nytimes.com:443/puzzles/spelling-bee:2,https://www.nytimes.com:443/2005/09/18/opinion/conventional-wisdom.html:2 3,https://en.wikipedia.org:443/wiki/Associate_Justice_of_the_Supreme_Court_of_the_United_States:67 68,https://www.nytimes.com:443/2024/05/04/opinion/trump-second-term-illiberalism.html:10 11,https://en.wikipedia.org:443/wiki/Great_Recession_in_the_United_States:7 8 9 10,https://en.wikipedia.org:443/wiki/United_States_Olympic_%26_Paralympic_Committee:15 16,https://www.nytimes.com:443/2024/04/02/world/middleeast/gaza-al-shifa-hospital.html:6 7 8 9,https://en.wikipedia.org:443/wiki/List_of_U.S._state_statutory_codes:4 5,https://www.nytimes.com:443/2021/07/07/style/how-the-french-manicure-made-its-comeback.html:3 4,https://www.nytimes.com:443/2024/05/03/climate/nasa-satellites-data.html:5 6 7,https://www.sportsbusinessjournal.com:443/Journal/Issues/2024/03/04.aspx:3 4 5 6,https://en.wikipedia.org:443/wiki/Boswell:4 5,https://en.wikipedia.org:443/wiki/ISSN_(identifier):2 3 4,https://en.wikipedia.org:443/wiki/Portal:Current_events:17 18,https://en.wikipedia.org:443/wiki/Cable_television:18 19,https://en.wikipedia.org:443/wiki/Horse_racing_in_the_United_States:4 5 6 7,https://www.nytimes.com:443/2024/05/01/us/free-speech-campus-protests.html:8 9,https://www.theguardian.com:443/sport/2004/jul/27/cricket.comment:5,https://en.wikipedia.org:443/wiki/Major_professional_sports_teams_of_the_United_States_and_Canada:2 3,https://en.wikipedia.org:443/wiki/File:Wiki_letter_w_cropped.svg:6 7,https://en.wikipedia.org:443/wiki/Greenhouse_gas_emissions_by_the_United_States:9 10 11 12 13,https://www.gallup.com:443/corporate/468077/media-center.aspx:5 6,https://en.wikipedia.org:443/wiki/Sergeant_at_Arms_of_the_United_States_Senate:6 7 8,https://en.wikipedia.org:443/wiki/Boston_Red_Sox:17 18,https://www.nytimes.com:443/2024/04/22/us/politics/israel-gaza-hamas-war.html:8 9,https://www.nytimes.com:443/live/2024/01/19/world/israel-hamas-news/a-un-official-says-israeli-treatment-of-detainees-may-amount-to-torture?smid=url-share:18 19,https://en.wikipedia.org:443/wiki/History_of_the_United_States_debt_ceiling:6 7 8 9,https://en.wikipedia.org:443/wiki/United_States_Aquatic_Sports:4 5,https://en.wikipedia.org:443/wiki/Architecture_of_the_United_States:8 9 10,https://en.wikipedia.org:443/wiki/2018_Rugby_World_Cup_Sevens:1 2,https://www.nytimes.com:443/section/books/review:3 4,https://cooking.nytimes.com:443/recipes/1024760-chocolate-layer-cake:3,https://en.wikipedia.org:443/wiki/Culture_of_the_United_States:29 30 31 32 33 34 35,https://en.wikipedia.org:443/wiki/National_symbols_of_the_United_States:3 4 5,https://en.wikipedia.org:443/wiki/Association_of_International_Olympic_Winter_Sports_Federations:2 3,https://en.wikipedia.org:443/wiki/Perpetual_Union:11 12 13,https://www.nytimes.com:443/2024/05/04/us/politics/trump-biden-campaign-young-voters.html:5 6,https://www.wikidata.org:443/wiki/Q159821:3,https://meta.wikimedia.org:443/wiki/Category:United_States:1 2,https://www.sportsbusinessjournal.com:443/Subscribe/Subscription-Landing.aspx:33 34 35 36 37,https://en.wikipedia.org:443/wiki/Sports_in_South_Korea:4 5,https://en.wikipedia.org:443/wiki/Professional_boxer:5 6,https://www.nytimes.com:443/2024/05/02/arts/design/petrit-halilaj-kosovo-met-roof.html:18 19,https://www.thetimes.co.uk:443/article/susan-hall-tory-mayoral-candidate-liked-tweet-praising-enoch-powell-zqsr6lvfk:2 3 4 5 6 7 8,https://en.wikipedia.org:443/wiki/Sports_in_Belize:2 3,https://www.nytimes.com:443/interactive/2024/02/22/crosswords/puzzle-personality.html:3 4,https://www.nytimes.com:443/2024/05/04/nyregion/columbia-protests-arrest-agitators-israel.html:4 5,https://en.wikipedia.org:443/wiki/NBA:26 27,https://en.wikipedia.org:443/wiki/College_athletics_in_the_United_States:36 37,https://www.businessinsider.com:443/fastest-growing-sport-in-america-2011-9:6 7 8,https://www.nytimes.com:443/interactive/2024/02/01/magazine/israel-founding-palestinian-conflict.html:15 16,https://www.nytimes.com:443/2024/05/02/us/blast-mortar-brain-injury-military.html:3 4 5 6,https://en.wikipedia.org:443/wiki/Bureau_of_Diplomatic_Security:24 25 26 27,https://www.nytimes.com:443/2024/05/03/opinion/campus-protests-israel-gaza.html:10 11,https://en.wikipedia.org:443/wiki/U.S._Immigration_and_Customs_Enforcement:34 35 36,https://www.nytimes.com:443/2024/05/04/world/middleeast/cindy-mccain-gaza-famine.html:3 4,https://en.wikipedia.org:443/wiki/College_basketball:24 25 26,https://en.wikipedia.org:443/wiki/Tribal_sovereignty_in_the_United_States:14 15 16,https://www.nytimes.com:443/2013/01/12/opinion/is-this-the-afghan-wars-last-chapter.html?_r=3&amp;:4 5,https://www.wikidata.org:443/wiki/Q25161472:2 3 4 5 6 7,https://en.wikipedia.org:443/wiki/Red_River_of_the_South:4 5,https://www.nytimes.com:443/2022/11/03/insider/what-to-expect-at-this-years-crucial-climate-summit.html:3 4,https://en.wikipedia.org:443/wiki/U.S._Biathlon_Association:2 3,https://bolavip.com:443/en/info/privacy:13,https://www.nytimes.com:443/article/trump-hush-money-trial-transcripts.html:2 3,https://en.wikipedia.org:443/wiki/United_States_federal_civil_service:5 6 7 8 9,https://en.wikipedia.org:443/wiki/Agriculture_in_the_United_States:5 6 7 8 9 10 11 