act act-0 7743 https://www.nytimes.com:443/2024/05/04/world/middleeast/cindy-mccain-gaza-famine.html:8,https://en.wikipedia.org:443/wiki/Constitution_of_the_United_States:80 81 82 83 84 85 86 87 88 89 90 91 92 93,https://en.wikipedia.org:443/wiki/Cold_War:89 90,https://en.wikipedia.org:443/wiki/Spanish%E2%80%93American_War:59 60 61 90 91 92 93,https://en.wikipedia.org:443/wiki/National_Reconnaissance_Office:60,https://en.wikipedia.org:443/wiki/Municipal_charter:4,https://en.wikipedia.org:443/wiki/Environmental_issues_in_the_United_States:38,https://en.wikipedia.org:443/wiki/Uniform_act:6 7 8 9 10 11 12 13 14,https://www.cnn.com:443/2020/09/26/politics/supreme-court-conservative/index.html:22,https://www.nytimes.com:443/section/magazine?page=8:16 17,https://en.wikipedia.org:443/wiki/Olympic_Games:30 31,https://www.nytimes.com:443/interactive/2024/nyregion/trump-manhattan-criminal-trial-witnesses.html:6,https://www.nytimes.com:443/2024/04/22/us/politics/israel-gaza-hamas-war.html:20,https://www.azcentral.com:443/story/sports/nfl/cardinals/2015/09/06/nfls-dynasties-decade/71605710/:4,https://www.nytimes.com:443/2024/04/29/realestate/renters-astoria-queens.html:4,https://www.nytimes.com:443/2024/04/24/us/palestinian-family-gaza-war-death.html:15,https://en.wikipedia.org:443/wiki/Terrorism_in_the_United_States:93 94 95 122 123 124 125 126 127 128 129 130 131 132 133 134,https://en.wikipedia.org:443/wiki/New_England_Patriots:34,https://www.nytimes.com:443/spotlight/graphics:7,https://en.wikipedia.org:443/wiki/Town_meeting:12 13 14 23,https://en.wikipedia.org:443/wiki/Americans:40,https://en.wikipedia.org:443/wiki/Sports_in_Ghana:45,https://www.nytimes.com:443/interactive/2024/02/01/magazine/israel-founding-palestinian-conflict.html:20,https://en.wikipedia.org:443/wiki/Special_district_(United_States):17 18 19 20,https://en.wikipedia.org:443/wiki/United_States_federal_civil_service:15,https://www.nytimes.com:443/2024/05/02/us/blast-mortar-brain-injury-military.html:9,https://en.wikipedia.org:443/wiki/Bureau_of_Diplomatic_Security:32 33 34 35 48 49 50 51 52,https://en.wikipedia.org:443/wiki/Immigrant_health_care_in_the_United_States:78 79,https://en.wikipedia.org:443/wiki/New_England:61 62 70 71 72,https://www.nytimes.com:443/section/science?page=9:16,https://en.wikipedia.org:443/wiki/Boston:47 63 64 65,https://en.wikipedia.org:443/wiki/Supreme_Court_of_the_United_States:82 83 124 125,https://www.themarshallproject.org:443/2022/06/14/what-did-fbi-data-say-about-crime-in-2021-it-s-too-unreliable-to-tell:5,https://www.pbs.org:443/wgbh/americanexperience/features/klansville-faq/:9 10 11,https://en.wikipedia.org:443/wiki/History_of_the_United_States_(1849%E2%80%931865):52 53 54 55,https://www.nytimes.com:443/live/2024/05/02/us/biden-trump-campaign:51,https://en.wikipedia.org:443/wiki/Baseball:33,https://en.wikipedia.org:443/wiki/Professional_Disc_Golf_Association:8,https://en.wikipedia.org:443/wiki/United_States_Attorney:8,https://en.wikipedia.org:443/wiki/American_League:6,https://en.wikipedia.org:443/wiki/Portal:Current_events:21,https://www.nytimes.com:443/spotlight/the-great-read:4,https://en.wikipedia.org:443/wiki/U.S._state:22 23,https://history.army.mil:443/books/wwii/persian/index.htm:7,https://www.nytimes.com:443/section/health?page=7:22,https://en.wikipedia.org:443/wiki/Education_in_the_United_States:122,https://en.wikipedia.org:443/wiki/Drug_Enforcement_Administration:44 45 46 63,https://en.wikipedia.org:443/wiki/Race_and_maternal_health_in_the_United_States:22,https://en.wikipedia.org:443/wiki/Vietnam_War:88 89,https://en.wikipedia.org:443/wiki/History_of_the_United_States_(1945%E2%80%931964):46 69 70,https://en.wikipedia.org:443/wiki/Articles_of_Confederation:25 26 27 33 34 35 36 37 38,https://www.nytimes.com:443/section/opinion/sunday:3,https://www.theguardian.com:443/sport/2018/jan/23/aly-raisman-olympic-committee-larry-nassar-abuse-case:21,https://en.wikipedia.org:443/wiki/Mayoralty_in_the_United_States:6,https://en.wikipedia.org:443/wiki/MLB_Network:17,https://en.wikipedia.org:443/wiki/Tribal_sovereignty_in_the_United_States:22 28 29 30 31 32,https://en.wikipedia.org:443/wiki/Antisemitism_in_the_United_States:31 32,https://www.nytimes.com:443/spotlight/graphics?page=10:26,https://bolavip.com:443/en/info/terms-conditions:9,https://en.wikipedia.org:443/wiki/Iroquois:68 69 82 83,https://en.wikipedia.org:443/wiki/History_of_the_United_States_(2008%E2%80%93present):57 74 75 76 77 78,https://en.wikipedia.org:443/wiki/Literacy_in_the_United_States:54,https://www.nytimes.com:443/interactive/2024/05/03/us/ucla-protests-encampment-violence.html:9,https://en.wikipedia.org:443/wiki/American_Revolution:61 62 85 86 87 88 89 90 91 92 93 94 95 96 97 98 99 100 101 102 103 104 105 106 107 108 109 110 111 112 113 114 115 116 117 118 119 120 121,https://en.wikipedia.org:443/wiki/IndyCar_Series:37,https://en.wikipedia.org:443/wiki/United_States_Olympic_%26_Paralympic_Committee:31 32 33 34,https://en.wikipedia.org:443/wiki/Summer_Olympic_Games:13,https://en.wikipedia.org:443/wiki/History_of_the_United_States_debt_ceiling:19 20 21 22 23 24 25 26 27 28,https://en.wikipedia.org:443/wiki/Democratic_Party_(United_States):106 107 108 109 110,https://en.wikipedia.org:443/wiki/Fenway_Park:28,https://www.nytimes.com:443/2024/04/02/world/middleeast/gaza-al-shifa-hospital.html:13 16,https://en.wikipedia.org:443/wiki/Consolidated_city-county:11,https://www.nytimes.com:443/section/opinion?page=5:9,https://en.wikipedia.org:443/wiki/Great_Recession_in_the_United_States:16 23 24,https://en.wikipedia.org:443/wiki/College_basketball:31 32,https://www.nytimes.com:443/video:6,https://en.wikipedia.org:443/wiki/U.S._Immigration_and_Customs_Enforcement:39 40 41 42 43 44 55,https://www.nytimes.com:443/2024/05/03/style/modern-love-we-didnt-know-it-was-the-last-time.html:4,https://en.wikipedia.org:443/wiki/Municipal_council:13 16,https://en.wikipedia.org:443/wiki/Indiana:42 48,https://en.wikipedia.org:443/wiki/Speaker_of_the_United_States_House_of_Representatives:14 15 16 17 18 19 20 21 22,https://www.nytimes.com:443/section/magazine:4,https://en.wikipedia.org:443/wiki/Powers_of_the_president_of_the_United_States:31 32 48,https://en.wikipedia.org:443/wiki/American_exceptionalism:38,https://en.wikipedia.org:443/wiki/Housing_in_the_United_States:11 12,https://en.wikipedia.org:443/wiki/Associate_Justice_of_the_Supreme_Court_of_the_United_States:69,https://spoiler.bolavip.com:443/en/celebrities/ryan-gosling-net-worth:5 6,https://en.wikipedia.org:443/wiki/Sergeant_at_Arms_of_the_United_States_Senate:9 10 11 12,https://en.wikipedia.org:443/wiki/Colonial_history_of_the_United_States:54 55 56 57 58,https://www.nytimes.com:443/interactive/2024/04/25/nyregion/trump-trial-hush-money-payments.html:4 5,https://www.nytimes.com:443/section/fashion/weddings:3,https://www.law.cornell.edu:443/supremecourt/text/74/700:31 32 33 34 35 36 37 48 49 50 51 52 53 54 55 56 57 58 59 60 61 62 63 64 65 66 67 68 69 70 71 72 73 74 75 76 77 78 79 80 81,https://en.wikipedia.org:443/wiki/Snowboarding:21,https://en.wikipedia.org:443/wiki/Perpetual_Union:16 17 18 19 20,https://en.wikipedia.org:443/wiki/Jack_Nicklaus:51,https://en.wikipedia.org:443/wiki/United_States_Declaration_of_Independence:71 72 73 74 75 76 77 78 79 80 81 82 83 84 85 86 87 88 89,https://en.wikipedia.org:443/wiki/United_States_dollar:41 42 43 44,https://en.wikipedia.org:443/wiki/Federal_tribunals_in_the_United_States:6,https://www.businessinsider.com:443/a-timeline-of-trumps-efforts-to-overturn-the-2020-election-2021-10:10 11 12 13 14,https://www.theguardian.com:443/us-news/2019/dec/29/synagogue-stabbings-three-hurt-in-monsey-attack-say-reports:2 3,https://en.wikipedia.org:443/wiki/List_of_U.S._state_statutory_codes:7 8 