adam adam-0 9396 https://www.nytimes.com:443/section/todayspaper:5,https://en.wikipedia.org:443/wiki/Americans:41 42 43 44,https://en.wikipedia.org:443/wiki/USA_Baseball:46 47,https://en.wikipedia.org:443/wiki/Red_River_of_the_South:13 14 15 16,https://en.wikipedia.org:443/wiki/Speaker_of_the_United_States_House_of_Representatives:27 28 29 30,https://www.sportsbusinessjournal.com:443/Articles/2023/10/23/mls-sets-attendance-record-for-season:6,https://en.wikipedia.org:443/wiki/NBA:35 36 37 38 39 40 41 42 43,https://en.wikipedia.org:443/wiki/Jack_Nicklaus:52 53 54,https://en.wikipedia.org:443/wiki/American_Revolution:123 124 125 126 127 128 129 130 131 132 133 134 135 136 137 138 139 140 141 142 143 144 145 146 147 148 149 150 151 152 153 154 155 156 157 158 159,https://en.wikipedia.org:443/wiki/Carlos_Bocanegra:14,https://en.wikipedia.org:443/wiki/Cable_television:25,https://en.wikipedia.org:443/wiki/Culture_of_the_United_States:54 55 56 57 58 59,https://en.wikipedia.org:443/wiki/Cold_War:120,https://en.wikipedia.org:443/wiki/Associate_Justice_of_the_Supreme_Court_of_the_United_States:74 75,https://www.nytimes.com:443/books/best-sellers/mass-market-monthly/:3,https://www.nytimes.com:443/2024/04/22/us/politics/israel-gaza-hamas-war.html:21 22 23 24 25 26,https://www.nytimes.com:443/section/corrections?page=5:11 12,https://en.wikipedia.org:443/wiki/History_of_the_United_States_(2008%E2%80%93present):80 81 82,https://www.azcentral.com:443/story/sports/nfl/cardinals/2015/09/06/nfls-dynasties-decade/71605710/:5,https://www.nytimes.com:443/spotlight/podcasts?page=6:31 32 33 34 35,https://en.wikipedia.org:443/wiki/Boston:67 68,https://www.espn.com:443/college-football/boxscore/_/gameId/401520155:2 3,https://en.wikipedia.org:443/wiki/Environmental_issues_in_the_United_States:49 50,https://cooking.nytimes.com:443/recipes/1016295-mint-julep:4,https://en.wikipedia.org:443/wiki/National_Football_League:41,https://en.wikipedia.org:443/wiki/Supreme_Court_of_the_United_States:131 132 133 134 135 136 137 138 139 140 141 142 143 144 145 146 147 148 149 150 151,https://en.wikipedia.org:443/wiki/List_of_mountains_of_the_United_States:73 74 75 76 77 78 79 80 81 82 83 84 85,https://en.wikipedia.org:443/wiki/2023_Big_Ten_Conference_football_season:31 32 33 34,https://en.wikipedia.org:443/wiki/Antisemitism_in_the_United_States:35 36 37,https://www.nytimes.com:443/section/science?page=9:21,https://www.nytimes.com:443/section/nyregion?page=4:10 11,https://en.wikipedia.org:443/wiki/Constitution_of_the_United_States:99 100 101 102 103 104 105 106 107 108 109,https://en.wikipedia.org:443/wiki/Outline_of_the_history_of_the_United_States:18 19 20 21 22 23 24,https://www.theguardian.com:443/us-news/2020/aug/25/qanon-conspiracy-theory-explained-trump-what-is:14,https://en.wikipedia.org:443/wiki/Northern_United_States:11,https://cooking.nytimes.com:443/recipes/1023559-ina-gartens-bourbon-chocolate-pecan-pie:2,https://en.wikipedia.org:443/wiki/Sports_in_India:82,https://en.wikipedia.org:443/wiki/Southern_United_States:62,https://en.wikipedia.org:443/wiki/Fox_Sports_1:27,https://stmarysmusings.sbnation.com:443/:4 5 6 7,https://en.wikipedia.org:443/wiki/Race_and_maternal_health_in_the_United_States:25 26 27 28,https://www.nytimes.com:443/section/t-magazine:8 9,https://en.wikipedia.org:443/wiki/History_of_the_United_States_(1945%E2%80%931964):72 73,https://en.wikipedia.org:443/wiki/Sports_in_the_United_States:32,https://www.sportsbusinessjournal.com:443/Daily/Issues/2024/04/29.aspx:7,https://en.wikipedia.org:443/wiki/Sports_in_Poland:15 16 17 18,https://en.wikipedia.org:443/wiki/New_England_Patriots:35 36 37 38 39 40 41 42 43 44 45 46 47 48 49 50 51,https://millercenter.org:443/president/adams/essays/clay-1825-secretary-of-state:5 6 7 8 9 10 11 12 13,https://en.wikipedia.org:443/wiki/Baseball:34,https://www.nytimes.com:443/spotlight/graphics?page=10:27 28 29 30 31,https://en.wikipedia.org:443/wiki/Boston_Red_Sox:48 49,https://en.wikipedia.org:443/wiki/Portal:Current_events:25,https://en.wikipedia.org:443/wiki/International_rankings_of_the_United_States:9,https://en.wikipedia.org:443/wiki/Spanish%E2%80%93American_War:96,https://www.nytimes.com:443/spotlight/the-great-read:6,https://www.nytimes.com:443/section/health?page=7:27,https://www.nytimes.com:443/section/obituaries:4,https://www.theatlantic.com:443/magazine/archive/2023/01/homelessness-affordable-housing-crisis-democrats-causes/672224/:12,https://en.wikipedia.org:443/wiki/New_England:73 74 75 76 77 78,https://en.wikipedia.org:443/wiki/MLS:40 41 42 43,https://www.nytimes.com:443/2024/05/04/opinion/trump-second-term-illiberalism.html:14,https://en.wikipedia.org:443/wiki/Democratic_Party_(United_States):112 113 114,https://en.wikipedia.org:443/wiki/West_Coast_of_the_United_States:22,http://www.redsoxdiehard.com:80/players/unifnums.html:21 22 23 24 25 26 27,https://en.wikipedia.org:443/wiki/Agriculture_in_the_United_States:32,https://www.nytimes.com:443/section/world:18 19 20 21,https://www.sportsbusinessjournal.com:443/Journal/Issues/2012/04/02/Media/Fox-channel.aspx:8,https://www.nytimes.com:443/2024/05/04/nyregion/columbia-protests-arrest-agitators-israel.html:17 18 19,https://www.nytimes.com:443/section/books/review?page=7:10,https://www.nytimes.com:443/series/opinion-audio:8,https://en.wikipedia.org:443/wiki/List_of_mountain_peaks_of_the_United_States:11 12 13 14 15 16,https://en.wikipedia.org:443/wiki/United_States_Declaration_of_Independence:90 91 92 93 94 95 96 97 98 99 100 101 102 103 104 105 106 107 108 109 110 111 112 113 114 115 116 117 118 119 120 121 122 123 124 125 126 127 128 129 130 131 132 133 134 135 136 137 138 139 140 141,https://en.wikipedia.org:443/wiki/List_of_U.S._states_and_territories_by_life_expectancy:12,https://www.nytimes.com:443/spotlight/visual-investigations:13,https://www.independent.co.uk:443/sport/us-sport/nba/draft-2020-what-time-start-uk-b1725070.html:2 3 4,https://www.nytimes.com:443/es/:16,https://en.wikipedia.org:443/wiki/Mayoralty_in_the_United_States:7,https://www.nytimes.com:443/2024/04/24/us/palestinian-family-gaza-war-death.html:16 17 18 19 20 21 22 23 24 25 26 27 28 29 30 31 32 33 34 35 36 37 38 39 40 41 42 43 44 45 46 47 48 49 50 51 52 53 54 55 56 57 58 59 60 61 62 63 64 65 66 67 68 69 70 71 72 73 74 75 76 77 78 79 80,https://en.wikipedia.org:443/wiki/Prescription_drug_prices_in_the_United_States:52 53,https://en.wikipedia.org:443/wiki/Perpetual_Union:21 22 23 24 25 26 27,https://en.wikipedia.org:443/wiki/The_Washington_Post:43 44,https://theconversation.com:443/es:14,https://en.wikipedia.org:443/wiki/United_States_Lifesaving_Association:5,https://en.wikipedia.org:443/wiki/American_Sign_Language:63,https://en.wikipedia.org:443/wiki/Fenway_Park:30 31 32 33 34 35 36,https://www.nytimes.com:443/books/best-sellers/:8,https://en.wikipedia.org:443/wiki/Major_Arena_Soccer_League:11 12,https://www.nytimes.com:443/spotlight/podcasts:21 22 23,https://en.wikipedia.org:443/wiki/United_States_Public_Health_Service_Commissioned_Corps:27,https://en.wikipedia.org:443/wiki/IndyCar_Series:41,https://en.wikipedia.org:443/wiki/Architecture_of_the_United_States:17 18,https://en.wikipedia.org:443/wiki/Great_Recession_in_the_United_States:25,https://www.businessinsider.com:443/real-estate:8 9,https://www.theguardian.com:443/sport/nhl:6 7 8,https://en.wikipedia.org:443/wiki/U.S._Immigration_and_Customs_Enforcement:57,https://en.wikipedia.org:443/wiki/College_athletics_in_the_United_States:58,https://www.nytimes.com:443/section/nyregion:6,https://en.wikipedia.org:443/wiki/Sergeant_at_Arms_of_the_United_States_Senate:14,https://www.nytimes.com:443/2024/05/04/business/energy-environment/tesla-electric-vehicles-supercharger.html:5,https://en.wikipedia.org:443/wiki/War_in_Afghanistan_(2001%E2%80%932021):195 196 197 198 200 201,https://www.nytimes.com:443/section/fashion?page=9:18,https://en.wikipedia.org:443/wiki/U.S._state:24,https://www.nytimes.com:443/section/magazine:5,https://en.wikipedia.org:443/wiki/Consolidated_city-county:12 13 14,https://en.wikipedia.org:443/wiki/Major_professional_sports_teams_of_the_United_States_and_Canada:6 7,https://en.wikipedia.org:443/wiki/Indiana:49 50 51,https://en.wikipedia.org:443/wiki/Snowboarding:27,https://en.wikipedia.org:443/wiki/File:Wiki_letter_w_cropped.svg:12,https://www.sportsbusinessjournal.com:443/Archive/Sections/International.aspx:11,https://en.wikipedia.org:443/wiki/Category:Use_mdy_dates_from_October_2023:20 21 22,https://www.nytimes.com:443/section/magazine?page=8:18,https://en.wikipedia.org:443/wiki/Arkansas_River:15 16,https://en.wikipedia.org:443/wiki/Basketball_in_the_United_States:5 6,https://en.wikipedia.org:443/wiki/List_of_current_United_States_district_judges:125 126 127,https://en.wikipedia.org:443/wiki/Colonial_history_of_the_United_States:59 60 61 62 63 64 65 66,https://www.nytimes.com:443/news-event/israel-hamas-gaza:10,https://en.wikipedia.org:443/wiki/American_exceptionalism:40,https://en.wikipedia.org:443/wiki/Bureau_of_Diplomatic_Security:53,https://en.wikipedia.org:443/wiki/Articles_of_Confederation:39 40 41 42 43 44 45 46 47 48 49 50 51 52 53 54 55 56,https://www.nytimes.com:443/by/liam-stack:4,https://en.wikipedia.org:443/wiki/United_States_men%27s_national_soccer_team:26 27 28 29,https://www.sportsbusinessjournal.com:443/Journal/Issues/2024/03/04.aspx:7,https://en.wikipedia.org:443/wiki/Terrorism_in_the_United_States:136 137 