addit addit-0 19919 https://en.wikipedia.org:443/wiki/Francis_Olympic_Field:9,https://en.wikipedia.org:443/wiki/Prescription_drug_prices_in_the_United_States:55 56 57 58 59 60 61,https://www.ft.com:443/content/03cc24ca-dc69-4bd6-8f2d-7509b0f6b6f1:11 12 13,https://en.wikipedia.org:443/wiki/Sports_in_Yemen:18 19 20 21 22,https://en.wikipedia.org:443/wiki/Articles_of_Confederation:59 60 61 62 63 64,https://commons.wikimedia.org:443/wiki/Category:Sports_in_Ecuador:3,https://en.wikipedia.org:443/wiki/Sports_in_Sierra_Leone:8,https://www.ncaa.org:443/sports/2021/5/11/division-i-finances.aspx:12 13,https://www.nytimes.com:443/privacy/cookie-policy:7 8,https://www.nytimes.com:443/interactive/2021/07/07/opinion/minimum-corporate-tax.html:12,https://cooking.nytimes.com:443/recipes/1019333-millionaires-shortbread:7,https://en.wikipedia.org:443/wiki/Immigrant_health_care_in_the_United_States:82 83 84 85 86 87,https://meta.wikimedia.org:443/wiki/Category:United_States:4,https://en.wikipedia.org:443/wiki/Housing_in_the_United_States:17,https://en.wikipedia.org:443/wiki/Carlos_Bocanegra:15,https://en.wikipedia.org:443/wiki/Cycling_in_the_United_States:12 13,https://en.wikipedia.org:443/wiki/Sports_teams_in_Virginia:8 9 10 11,https://en.wikipedia.org:443/wiki/College_athletics_in_the_United_States:64 65 66 67 68 69 70 71 72 73,https://en.wikipedia.org:443/wiki/United_States_Aquatic_Sports:9 10 11 12,https://en.wikipedia.org:443/wiki/Uniform_act:17,https://www.nytimes.com:443/interactive/2024/nyregion/trump-manhattan-criminal-trial-witnesses.html:8,https://en.wikipedia.org:443/wiki/Terrorism_in_the_United_States:139 140 141 142,https://www.nytimes.com:443/2024/05/02/business/horse-racing-deaths-kentucky-derby.html:11,https://en.wikipedia.org:443/wiki/Sports_in_Syria:18,https://www.azcentral.com:443/story/sports/nfl/cardinals/2015/09/06/nfls-dynasties-decade/71605710/:7,https://en.wikipedia.org:443/wiki/Colonial_history_of_the_United_States:69 70 71 72 73 74,https://en.wikipedia.org:443/wiki/Sports_in_Finland:12 13 14 15 16 17 18,https://en.wikipedia.org:443/wiki/2018_Rugby_World_Cup_Sevens:6 7,https://commons.wikimedia.org:443/wiki/Commons:Upload:2,https://en.wikipedia.org:443/wiki/U.S._Squash:11 12,https://en.wikipedia.org:443/wiki/List_of_mountain_peaks_of_the_United_States:17,https://en.wikipedia.org:443/wiki/National_symbols_of_the_United_States:8 9,https://en.wikipedia.org:443/wiki/National_Reconnaissance_Office:61 62,https://www.nytimes.com:443/section/corrections?page=5:13,https://en.wikipedia.org:443/wiki/American_League:9 10,https://en.wikipedia.org:443/wiki/Outline_of_the_history_of_the_United_States:27,https://en.wikipedia.org:443/wiki/Perpetual_Union:28,https://en.wikipedia.org:443/wiki/Bodybuilding_in_the_United_States:10,https://en.wikipedia.org:443/wiki/Tribal_sovereignty_in_the_United_States:33 34 35 36 37,https://en.wikipedia.org:443/wiki/Olympic_Games:45 46 47 48 49 51,https://commons.wikimedia.org:443/wiki/Category:Bodybuilding_in_the_United_States:2,https://cooking.nytimes.com:443/recipes/1024469-tomato-cheddar-toasts:17,https://en.wikipedia.org:443/wiki/Sports_in_Brunei:24 25,https://en.wikipedia.org:443/wiki/United_States_Reports:8,https://www.theguardian.com:443/sport/2017/aug/19/will-mcgregor-v-mayweather-save-american-boxing-or-bury-it?CMP=share_btn_link:6 7,https://www.bbc.co.uk:443/news/world-asia-35169478:13,https://en.wikipedia.org:443/wiki/Template_talk:Sports_governing_bodies_in_the_United_States:7,https://en.wikipedia.org:443/wiki/United_States_dollar:46 47,https://www.businessinsider.com:443/a-timeline-of-trumps-efforts-to-overturn-the-2020-election-2021-10:15,https://en.wikipedia.org:443/wiki/Horse_racing_in_the_United_States:9,https://en.wikipedia.org:443/wiki/Fenway_Park:40 41 42 43 44 45 46,https://en.wikipedia.org:443/wiki/USA_Cycling:17 18 19 20,https://en.wikipedia.org:443/wiki/Portal:Current_events:26,https://en.wikipedia.org:443/wiki/Environmental_issues_in_the_United_States:52 53 54 55 56 57,https://en.wikipedia.org:443/wiki/Template_talk:United_States_topics:25 26,https://en.wikipedia.org:443/wiki/Sports_in_Ghana:50 51 52 53,https://en.wikipedia.org:443/wiki/Sports_in_Namibia:9 10,https://en.wikipedia.org:443/wiki/United_States_at_the_Universiade:4,https://en.wikipedia.org:443/wiki/History_of_the_United_States_(1945%E2%80%931964):79 80 81 82 83 84 85 86 87 88 89,https://en.wikipedia.org:443/wiki/Cold_War:124 125 126 127 128 129 130 131 132 133,https://en.wikipedia.org:443/wiki/Sports_in_Maryland:32,https://en.wikipedia.org:443/wiki/Sports_in_France:12 13 14 15,https://en.wikipedia.org:443/wiki/Sports_in_Poland:20,https://en.wikipedia.org:443/wiki/Snowboarding:29 30 31 32 33,https://cooking.nytimes.com:443/about-us:6,https://cooking.nytimes.com:443/recipes/1022283-country-panzanella-with-watermelon-dressing:10,https://en.wikipedia.org:443/wiki/Inter_Miami:39 40 41 42 43 44,https://en.wikipedia.org:443/wiki/Literacy_in_the_United_States:57 58 59 60 61 62 63,https://commons.wikimedia.org:443/wiki/Category:Sports_in_Cura%C3%A7ao:2,https://www.forbes.com:443/sites/zachslaton/2012/10/15/how-the-mls-playoff-format-punishes-ambitious-teams/:8 9,https://en.wikipedia.org:443/wiki/Antisemitism_in_the_United_States:41,https://en.wikipedia.org:443/wiki/2023_Big_Ten_Conference_football_season:37 38,https://en.wikipedia.org:443/wiki/Disc_golf_in_the_United_States:10,https://en.wikipedia.org:443/wiki/History_of_the_United_States_debt_ceiling:32,https://en.wikipedia.org:443/wiki/List_of_U.S._states_and_territories_by_life_expectancy:13,https://en.wikipedia.org:443/wiki/Sports_in_Cuba:11,https://en.wikipedia.org:443/wiki/Sports_in_Belize:5,https://www.sportsbusinessjournal.com:443/Journal/Issues/2012/04/02/Media/Fox-channel.aspx:11 12,https://en.wikipedia.org:443/wiki/Professional_Disc_Golf_Association:10 11,https://en.wikipedia.org:443/wiki/Forbes:17 18,https://en.wikipedia.org:443/wiki/Sports_in_South_Korea:15,https://spoiler.bolavip.com:443/en/celebrities/ryan-gosling-net-worth:18 19,https://en.wikipedia.org:443/wiki/Category:United_States:4,https://en.wikipedia.org:443/wiki/National_League_(baseball):39 40 41 42,https://en.wikipedia.org:443/wiki/United_States_Lifesaving_Association:8,https://archive.curbed.com:443/2020/1/13/21026108/public-housing-faircloth-amendment-election-2020:8 9 10 11 12,https://en.wikipedia.org:443/wiki/New_England_Patriots:56 57 58 59 60 61 62 63 64,https://en.wikipedia.org:443/wiki/Spanish%E2%80%93American_War:100 101 102 103 104 105,https://nytlicensing.com:443/timesdigest/:10,https://en.wikipedia.org:443/wiki/Summer_Olympic_Games:15,https://www.nytimes.com:443/article/wedding-feature-submission-form.html:8,https://news.gallup.com:443/poll/224864/football-americans-favorite-sport-watch.aspx:11,https://en.wikipedia.org:443/wiki/Special_district_(United_States):22 23,https://en.wikipedia.org:443/wiki/United_States_Attorney:14 15,https://en.wikipedia.org:443/wiki/Association_of_International_Olympic_Winter_Sports_Federations:6,https://en.wikipedia.org:443/wiki/United_States_Olympic_%26_Paralympic_Committee:42 43 44,https://en.wikipedia.org:443/wiki/Sports_in_Georgia_(country):13,https://en.wikipedia.org:443/wiki/Race_and_maternal_health_in_the_United_States:32 33,https://cooking.nytimes.com:443/recipes/1025421-creole-broiled-shrimp-and-baby-corn:5 6,https://en.wikipedia.org:443/wiki/U.S._Biathlon_Association:7,https://en.wikipedia.org:443/wiki/Drug_Enforcement_Administration:71 72 73 74 75 76 77,https://en.wikipedia.org:443/wiki/Federal_tribunals_in_the_United_States:10 11,https://en.wikipedia.org:443/wiki/Municipal_council:20 21 22 23 24 25 26 27 28,https://www.patriots.com:443/news/ben-coates-elected-to-patriots-hall-of-fame-140866:11 12 13 14,https://en.wikipedia.org:443/wiki/Baseball:39 40 41 42 43 44,https://en.wikipedia.org:443/wiki/Major_Arena_Soccer_League:13 14 15,https://en.wikipedia.org:443/wiki/New_England:82 83 84 85,https://en.wikipedia.org:443/wiki/Sports_in_South_Carolina:15 16,https://www.nytimes.com:443/2024/04/17/opinion/venezuela-oil-sanctions.html:7,https://dcp.psc.gov:443/ccbulletin/articles/Reserve_Update.aspx:9 10,https://bolavip.com:443/en/info/privacy:17 18 19,https://en.wikipedia.org:443/wiki/Time_in_the_United_States:6 7,https://www.indycar.com:443/news/2022/02/02-22-internationaltv:10,https://commons.wikimedia.org:443/wiki/Category:Sports_in_the_United_States:4,https://en.wikipedia.org:443/wiki/Sports_in_Papua_New_Guinea:5,https://wtop.com:443/virginia/2020/01/virginia-becomes-38th-state-to-ratify-equal-rights-amendment-but-it-may-be-too-late/:7,https://en.wikipedia.org:443/wiki/Jack_Nicklaus:58 59 60 61 62 63,https://en.wikipedia.org:443/wiki/Agriculture_in_the_United_States:36 37 38 39,https://www.law.cornell.edu:443/supremecourt/text/74/700:88 89,https://www.nytimes.com:443/interactive/2024/05/03/opinion/global-billionaires-tax.html:8 9,https://en.wikipedia.org:443/wiki/Comparison_of_U.S._state_and_territory_governments:12,https://en.wikipedia.org:443/wiki/United_States_at_the_FIFA_Confederations_Cup:6,https://www.tlc.com:443/weddings/top-trends-for-spring-wedding-2024:13,https://en.wikipedia.org:443/wiki/Coterminous_municipality:4,https://www.commanders.com:443/news/commanders-agree-to-trade-de-montez-sweat-to-chicago-bears:7,https://commons.wikimedia.org:443/wiki/Category:Sports_in_Finland:3,https://www.wikidata.org:443/wiki/Q25161472:8,https://en.wikipedia.org:443/wiki/West_Coast_of_the_United_States:23 24,https://en.wikipedia.org:443/wiki/Powers_of_the_president_of_the_United_States:50 51 52,https://en.wikipedia.org:443/wiki/Sports_in_Uzbekistan:12 13 14 15,https://en.wikipedia.org:443/wiki/Sports_in_Armenia:15,https://en.wikipedia.org:443/wiki/USA_Cricket:19,https://en.wikipedia.org:443/wiki/MLB_Network:19 20 21,https://en.wikipedia.org:443/wiki/College_basketball:34 35 36 37 38 39,https://www.sportsbusinessjournal.com:443/Articles/2023/10/23/mls-sets-attendance-record-for-season:9,https://en.wikipedia.org:443/wiki/Rugby_union_at_the_Summer_Olympics:7 8 9 10,https://en.wikipedia.org:443/wiki/Boston_Red_Sox:51 52 53 54 55 57,https://en.wikipedia.org:443/wiki/Henley_Royal_Regatta:17 18 19 20 21 22,https://www.nytimes.com:443/2024/05/03/theater/the-miser-review-brooklyn.html:8,https://www.ncaa.org:443/sports/2021/4/21/division-ii-academics.aspx:12,https://en.wikipedia.org:443/wiki/Boston:71 72 73 74 75 76,https://en.wikipedia.org:443/wiki/Federal_law_enforcement_in_the_United_States:18,https://en.wikipedia.org:443/wiki/United_States_Polo_Association:14 15 16 17,https://commons.wikimedia.org:443/wiki/Category:Awards_associated_with_sports_of_the_United_States:2,https://en.wikipedia.org:443/wiki/Vietnam_War:134 135 136 137 138 139 140 141 142 143 144 145 146 147 148 150,https://www.wikidata.org:443/wiki/Q8319:3,https://en.wikipedia.org:443/wiki/Sports_in_Washington:17 18 19 20 21 22 23 24 25 26,https://en.wikipedia.org:443/wiki/United_States_Public_Health_Service_Commissioned_Corps:28 29 30 31 32,https://www.wikidata.org:443/wiki/Q861654:3,https://en.wikipedia.org:443/wiki/Architecture_of_the_United_States:26 27 28 29,https://en.wikipedia.org:443/wiki/Timeline_of_United_States_inventions:4,https://en.wikipedia.org:443/wiki/MLS:46 47 48 49 50 51 52 53 54 55 56 57 58,https://en.wikipedia.org:443/wiki/Speaker_of_the_United_States_House_of_Representatives:32 33 34 35 36 37 38,https://commons.wikimedia.org:443/wiki/Category:Spectrum_Sports:2,https://commons.wikimedia.org:443/wiki/Category:War_in_Afghanistan_(2001%E2%80%932021):5,https://www.nytimes.com:443/by/pamela-paul:5,https://en.wikipedia.org:443/wiki/Basketball_in_the_United_States:7,https://en.wikipedia.org:443/wiki/Louise_Suggs:6 7,https://en.wikipedia.org:443/wiki/Sports_in_El_Salvador:19 20 21 22 23,https://en.wikipedia.org:443/wiki/Sports_in_Kentucky:21 22 23 24,https://cooking.nytimes.com:443/recipes/1013611-rhubarb-upside-down-cake:20 21,https://en.wikipedia.org:443/wiki/Greenhouse_gas_emissions_by_the_United_States:32 33 34,https://www.forbes.com:443/sites/greatspeculations/2019/09/22/a-strange-new-world-economic-slowdown-liquidity-issues/:5 6 7 8 9,https://en.wikipedia.org:443/wiki/Cable_television:28 29 30 31 32 33 34 35,https://en.wikipedia.org:443/wiki/U.S._Immigration_and_Customs_Enforcement:58 59 60 61 62 63,https://en.wikipedia.org:443/wiki/Ice_hockey:21 22 23 24 25 26 27 28 29 30 31 32 33,https://en.wikipedia.org:443/wiki/Culture_of_the_United_States:70 71 72 73 74 75 76 77 78 79,https://cooking.nytimes.com:443/recipes/1024760-chocolate-layer-cake:15 16 17,https://en.wikipedia.org:443/wiki/Democratic_Party_(United_States):116 117 118,https://en.wikipedia.org:443/wiki/Education_in_the_United_States:127 128 129 130 131,https://en.wikipedia.org:443/wiki/Sports_in_India:92 93 94 95 96,https://en.wikipedia.org:443/wiki/Gymnastics_in_the_United_States:26,https://en.wikipedia.org:443/wiki/File:Commons-logo.svg:14 15,https://en.wikipedia.org:443/wiki/USA_Baseball:48 49 50 51 52 53 54 55 56 57,https://en.wikipedia.org:443/wiki/List_of_U.S._state_statutory_codes:12,https://en.wikipedia.org:443/wiki/United_States_federal_civil_service:17 18 19 20,https://www.tlc.com:443/inside-tlc/TLC-Casting:16,https://commons.wikimedia.org:443/wiki/Category:Sports_in_Maryland:5,https://www.cnn.com:443/2020/09/26/politics/supreme-court-conservative/index.html:24 25,https://en.wikipedia.org:443/wiki/Professional_boxer:9 10,https://en.wikipedia.org:443/wiki/National_Boxing_Association:13 14,https://en.wikipedia.org:443/wiki/United_States_men%27s_national_soccer_team:31 32,https://en.wikipedia.org:443/wiki/Columbia_(personification):13 14 15,https://en.wikipedia.org:443/wiki/War_in_Afghanistan_(2001%E2%80%932021):205 206 207 208 209 210 211 212 213,https://en.wikipedia.org:443/wiki/Sports_in_Uruguay:9,https://en.wikipedia.org:443/wiki/Maternal_mortality_in_the_United_States:57 58 59 60 61 62,https://en.wikipedia.org:443/wiki/Mayoralty_in_the_United_States:10,https://en.wikipedia.org:443/wiki/International_rankings_of_the_United_States:10,https://en.wikipedia.org:443/wiki/WNBA%27s_Top_15_Team:9,https://www.independent.co.uk:443/extras/indybest/house-garden:18 19 20,https://en.wikipedia.org:443/wiki/USA_Water_Ski_%26_Wake_Sports:6,https://www.theguardian.com:443/uk/2010/may/04/sainsburys-sponsors-paralympic-games:2,https://en.wikipedia.org:443/wiki/Northern_United_States:12,https://en.wikipedia.org:443/wiki/Independent_city_(United_States):5 6 7 8,https://www.nytimes.com:443/2024/04/01/fashion/craft-handmade-umbrella-italy.html:5,https://en.wikipedia.org:443/wiki/Timeline_of_United_States_inventions_(after_1991):19 20 21,https://en.wikipedia.org:443/wiki/Sports_in_Venezuela:15 16,https://en.wikipedia.org:443/wiki/Public_utilities_commission:6,https://en.wikipedia.org:443/wiki/Association_of_Summer_Olympic_International_Federations:6,https://en.wikipedia.org:443/wiki/Sports_in_American_Samoa:6,https://en.wikipedia.org:443/wiki/List_of_current_United_States_district_judges:130 131,https://en.wikipedia.org:443/wiki/Sergeant_at_Arms_of_the_United_States_Senate:15 16,https://commons.wikimedia.org:443/wiki/Category:Sports_in_Panama:3,https://www.nytimes.com:443/2019/01/31/opinion/letters/letters-to-editor-new-york-times-women.html:11,https://en.wikipedia.org:443/wiki/NBA:47 48 49 50 51 52 53 54 55,https://en.wikipedia.org:443/wiki/Indiana:56 57 58 59 60 61 62,https://en.wikipedia.org:443/wiki/United_States_Declaration_of_Independence:142 143 144 145,https://en.wikipedia.org:443/wiki/Supreme_Court_of_the_United_States:155 156 157 158 159 160 161 162 163 164 165,https://en.wikipedia.org:443/wiki/Americans:47 48 49 50,https://en.wikipedia.org:443/wiki/Iroquois:87 88 89 90 91 92 93 94 95,https://en.wikipedia.org:443/wiki/Sports_in_Arizona:9 10,https://en.wikipedia.org:443/wiki/Sports_in_Samoa:4,https://en.wikipedia.org:443/wiki/Sports_in_Estonia:17,https://en.wikipedia.org:443/wiki/Template:Sports_in_the_United_States:6,https://en.wikipedia.org:443/wiki/ISSN_(identifier):9 10,https://www.nytimes.com:443/2024/05/03/opinion/nuclear-power-energy.html:8,https://en.wikipedia.org:443/wiki/American_Sign_Language:71 72 73 74 75 76,https://en.wikipedia.org:443/wiki/Boswell:7,https://www.nytimes.com:443/2024/05/04/opinion/alexandria-ocasio-cortez.html:20,https://en.wikipedia.org:443/wiki/Southern_United_States:64 65 66 67 68 69 70 71 72,https://en.wikipedia.org:443/wiki/Category:Use_mdy_dates_from_October_2023:29,https://en.wikipedia.org:443/wiki/Fashion_in_the_United_States:14 15,https://en.wikipedia.org:443/wiki/Arkansas_River:17 18,https://en.wikipedia.org:443/wiki/Red_River_of_the_South:19 20 21 22,https://www.nytimes.com:443/section/food:2,https://en.wikipedia.org:443/wiki/Major_professional_sports_teams_of_the_United_States_and_Canada:10,https://en.wikipedia.org:443/wiki/Wikipedia:File_upload_wizard:25 26 27,https://en.wikipedia.org:443/wiki/Constitution_of_the_United_States:113 114 115 116 117 118 119 120 121 122 123 124 125 126,https://www.pbs.org:443/wgbh/americanexperience/features/klansville-faq/:15,https://en.wikipedia.org:443/wiki/Municipal_charter:6 7,https://www.nytimes.com:443/spotlight/graphics?page=10:32,https://en.wikipedia.org:443/wiki/Template_talk:Americas_topic:7,https://en.wikipedia.org:443/wiki/Volleyball:22 23 24 25 26 27 28 29,https://www.theatlantic.com:443/magazine/archive/2023/01/homelessness-affordable-housing-crisis-democrats-causes/672224/:15 16,https://www.nytimes.com:443/2024/05/04/nyregion/columbia-protests-arrest-agitators-israel.html:21,https://en.wikipedia.org:443/wiki/Soccer_in_the_United_States:43 44 45 46 47 48 49 50 51 52 53 54 55 56 57 58 59 60 61 62 63 64,https://en.wikipedia.org:443/wiki/List_of_mountains_of_the_United_States:86,https://en.wikipedia.org:443/wiki/Sports_in_Ethiopia:10,https://nces.ed.gov:443/blogs/nces/post/where-can-i-find-information-about-the-condition-of-education-in-the-united-states:8 9,https://www.nytimes.com:443/interactive/2024/05/03/us/ucla-protests-encampment-violence.html:10,https://en.wikipedia.org:443/wiki/IndyCar_Series:44 45 46 47 48 49 50 51 52 53 54 55 56 57 58 61,https://en.wikipedia.org:443/wiki/United_States_Backgammon_Federation:5,https://en.wikipedia.org:443/wiki/National_Federation_of_State_High_School_Associations:41 42 43 44,https://en.wikipedia.org:443/wiki/Bureau_of_Diplomatic_Security:54 55 56 57 58 59 60 61 62 63,https://en.wikipedia.org:443/wiki/National_monument_(United_States):17 18 20,https://en.wikipedia.org:443/wiki/History_of_the_United_States_(1849%E2%80%931865):57 58,https://en.wikipedia.org:443/wiki/Consolidated_city-county:16 17 18 19,https://en.wikipedia.org:443/wiki/National_Football_League:44 45 46 47 48 49 50 51 52,https://en.wikipedia.org:443/wiki/The_Washington_Post:49 50,https://en.wikipedia.org:443/wiki/Town_meeting:28 29 30,https://www.wikidata.org:443/wiki/Q159821:4,https://en.wikipedia.org:443/wiki/Fox_Sports_1:28 29 30 31,https://en.wikipedia.org:443/wiki/File:Wiki_letter_w_cropped.svg:16,https://www.gallup.com:443/394505/indicator-life-evaluation-index.aspx:7 8,https://en.wikipedia.org:443/wiki/Great_Recession_in_the_United_States:27 28,https://en.wikipedia.org:443/wiki/History_of_the_United_States_(2008%E2%80%93present):85 86 87 88 89 90 91 92 93 94 95,https://en.wikipedia.org:443/wiki/American_Revolution:161 162 163 164,https://en.wikipedia.org:443/wiki/American_exceptionalism:41,https://en.wikipedia.org:443/wiki/Associate_Justice_of_the_Supreme_Court_of_the_United_States:76,https://en.wikipedia.org:443/wiki/United_States_Minor_Outlying_Islands:11,https://en.wikipedia.org:443/wiki/Beach_volleyball:24 25 26 27,https://en.wikipedia.org:443/wiki/Hawaiian_home_land:11,https://en.wikipedia.org:443/wiki/Spectrum_Sports:12 13 14 15,https://en.wikipedia.org:443/wiki/Sports_in_the_United_States:36 37 38 39,https://www.usatoday.com:443/story/sports/mlb/2013/08/11/fox-sports-1-versus-espn/2641247/:16,https://en.wikipedia.org:443/wiki/U.S._state:25 26 27 28 34 35 36 