advertis advertis-0 24683 https://www.nytimes.com:443/2023/09/07/climate/climate-forward-event.html:10 11 12 13 14 15,https://www.nytimes.com:443/by/mark-landler:4,https://www.nytimes.com:443/2024/04/20/health/seniors-home-equity-mortgages.html:18 19 20 21 22 23,https://cooking.nytimes.com:443/recipes/1018626-eggs-benedict:22 23,https://www.azcentral.com:443/story/sports/nfl/cardinals/2015/09/06/nfls-dynasties-decade/71605710/:8 9 10,https://www.nytimes.com:443/2023/11/21/dining/restaurant-review-bangkok-supper-club.html:7 8 9 10 11 12,https://www.sportsbusinessjournal.com:443/Articles/2023/10/23/mls-sets-attendance-record-for-season:10 11 12,https://www.theguardian.com:443/sport/nhl:10,https://en.wikipedia.org:443/wiki/Sports_in_India:121 122 123 124,https://archive.curbed.com:443/2020/1/13/21026108/public-housing-faircloth-amendment-election-2020:18,https://www.nytimes.com:443/2024/05/03/arts/design/stanley-stellar-frieze-photography.html:8 9 10 11 12 13,https://www.nytimes.com:443/2024/05/02/opinion/israel-saudi-arabia.html:12 13 14 15 16 17,https://www.nytimes.com:443/2024/04/12/fashion/weddings/elena-bauer-joshua-fagel-wedding.html:5 6 7 8 9 10,https://www.nytimes.com:443/wirecutter/:27,https://www.nytimes.com:443/2021/07/07/style/how-the-french-manicure-made-its-comeback.html:5 6 7 8 9 10,https://www.theguardian.com:443/us-news/2019/dec/29/synagogue-stabbings-three-hurt-in-monsey-attack-say-reports:5,https://www.nytimes.com:443/spotlight/graphics:10 11 12 13 14 15 16 17 18 19,https://www.bbc.co.uk:443/news/world-asia-35169478:17,https://en.wikipedia.org:443/wiki/College_athletics_in_the_United_States:93,https://www.nytimes.com:443/section/books/review?page=7:16 17 18 19 20 21 22 23 24 25 26 27 28 29 30 31 32 33 34 35,https://www.nytimes.com:443/2024/05/02/arts/music/tiktok-universal-music-deal.html:13 14 15 16 17 18,https://www.nytimes.com:443/news-event/trump-ny-hush-money-case:3 4 5 6 7,https://en.wikipedia.org:443/wiki/IndyCar_Series:77 78 79,https://www.nytimes.com:443/section/theater:6 7 8 9 10 11 12 13 14 15,https://www.nytimes.com:443/2024/05/04/opinion/fat-activist-freedom-health.html:26 27 28 29 30 31,https://www.nytimes.com:443/interactive/2024/05/03/us/ucla-protests-encampment-violence.html:12 13 14,https://www.nytimes.com:443/article/senate-races-2024-election.html:8 9 10 11 12 13,https://www.theguardian.com:443/world/2001/oct/27/afghanistan.terrorism6:2,https://www.nytimes.com:443/2024/05/03/climate/nasa-satellites-data.html:12 13 14 15,https://www.cookingchanneltv.com:443/recipes/tia-mowry/spaghetti-and-turkey-meatballs-2803024:19,https://www.nytimes.com:443/interactive/2024/02/22/crosswords/puzzle-personality.html:5 6 7,https://www.theguardian.com:443/uk/2010/may/04/sainsburys-sponsors-paralympic-games:3 4,https://www.nytimes.com:443/2023/11/29/business/dealbook/kamala-harris-biden-voters.html:12 13 14 15 16,https://en.wikipedia.org:443/wiki/USA_Cycling:28,https://www.nytimes.com:443/2024/04/30/learning/graphs.html:5 6 7 8 9 10,https://www.usatoday.com:443/story/sports/winter-olympics-2018/2018/02/13/medalists-2018-winter-olympics-get-precious-keepsake-and-medal/332267002/:5,https://www.nytimes.com:443/section/arts/television:6 7 8 9 10 11 12 13 14 15,https://www.nytimes.com:443/section/realestate:2 3 4 5 6 7 8 9 10 11 12 13 14 15 16 17 18 19,https://www.nytimes.com:443/section/opinion/letters:5 6 7 8 9 10,https://en.wikipedia.org:443/wiki/History_of_the_United_States_(2008%E2%80%93present):141,https://www.bbc.co.uk:443/news/world-us-canada-55358342:7,https://www.nytimes.com:443/by/charles-m-blow:5,https://www.nytimes.com:443/section/jobs:9 10 11 12 13 14 15,https://www.cookingchanneltv.com:443/:3,https://www.nytimes.com:443/section/fashion:11 12 13 14 15 16 17 18 19 20 21 22 23 24 25 26 27 28,https://www.nytimes.com:443/2019/01/31/opinion/letters/letters-to-editor-new-york-times-women.html:13 14 15 16 17 18,https://www.nytimes.com:443/2024/05/03/nyregion/trump-trial-hope-hicks-takeaways.html:15 16 17 18 19,https://www.nytimes.com:443/live/2024/05/04/world/israel-gaza-war-hamas:32 33 34 35 36 37 38 39,https://www.nytimes.com:443/2005/09/18/opinion/conventional-wisdom.html:8 9 10 11 12 13,https://www.nytimes.com:443/interactive/2024/04/25/nyregion/trump-trial-hush-money-payments.html:6 7 8 9 10,https://www.usatoday.com:443/story/news/politics/2022/08/04/krysten-sinema-inflation-reduction-act-senator-democrats-vote/10234906002/:7,https://www.nytimes.com:443/spotlight/the-great-read:7 8 9 10 11 12 13 14,https://cooking.nytimes.com:443/recipes/1024469-tomato-cheddar-toasts:20 21,https://www.nytimes.com:443/section/style:7 8 9 10 11 12 13 14 15 16 17 18,https://www.nytimes.com:443/trending/:5 6 7 8 9 10,https://www.sportsbusinessjournal.com:443/Journal/Issues/2024/03/04.aspx:10 11 12,https://en.wikipedia.org:443/wiki/Cable_television:47,https://www.nytimes.com:443/video:11 12 13 14 15,https://www.nytimes.com:443/2022/02/11/sports/horse-racing/medina-spirit-kentucky-derby-necropsy.html?searchResultPosition=2:5 6 7 8 9 10,https://www.nytimes.com:443/section/us:11 12 13 14 15 16 17 18 19 20,https://www.nytimes.com:443/books/best-sellers/mass-market-monthly/:13 14 15 16 17,https://www.nfl.com:443/standings/:7 8,https://www.sportsbusinessjournal.com:443/Subscribe/Subscription-Landing.aspx:43 44 45,https://www.businessinsider.com:443/guides/tech:25 26 27 28,https://www.theguardian.com:443/us/soccer:11,https://www.nytimes.com:443/section/arts/design:4 5 6 7 8 9 10 11 12 13,https://www.nytimes.com:443/section/food:3 4 5 6 7 8 9 10,https://www.nytimes.com:443/interactive/2024/02/01/magazine/israel-founding-palestinian-conflict.html:22 23 24,https://www.nytimes.com:443/international/:8 9 10 11 12 13 14 15 16 17 18,https://www.nytimes.com:443/2024/05/04/opinion/trump-second-term-illiberalism.html:19 20 21 22 23 24,https://www.nytimes.com:443/2024/04/01/fashion/craft-handmade-umbrella-italy.html:6 7 8 9,https://www.nytimes.com:443/2021/08/16/world/asia/afghanistan-taliban-video.html:13 14 15 16 17 18,https://www.nytimes.com:443/interactive/2024/03/28/travel/things-to-do-mumbai.html:15 16 17,https://en.wikipedia.org:443/wiki/Sports_in_Cuba:13,https://www.usatoday.com:443/story/sports/mlb/2016/11/03/world-series-tv-television-ratings-chicago-cubs-cleveland-indians/93231896/:4,https://www.nytimes.com:443/news-event/2024-election:11 12 13 14 15,https://www.nytimes.com:443/spotlight/nyt-events:4 5 6 7 8 9 10 11 12 13 14,https://www.nytimes.com:443/2024/05/01/magazine/catholic-cousin-annulment-ethics.html:7 8 9 10 11,https://www.nytimes.com:443/section/technology:5 6 7 8 9 10 11 12 13 14 15,https://www.nytimes.com:443/section/science:13 14 15 16 17 18 19 20 21 22 23 24,https://www.nytimes.com:443/section/health:16 17 18 19 20 21 22 23 24 25,https://www.nytimes.com:443/ca/:8 9 10 11 12 13 14 15 16 17 18,https://www.theguardian.com:443/type/video+tone/comment:3,https://www.nytimes.com:443/2024/04/10/style/rishi-sunak-adidas-sambas.html:17 18 19 20 21 22,https://www.sportsbusinessjournal.com:443/Archive/Sections/International.aspx:14 15 16,https://www.nytimes.com:443/privacy/cookie-policy:20 21 22 23 24 25 26 27 28 29 30 31,https://www.nytimes.com:443/section/fashion?page=9:23 24 25 26 27 28 29 30 31 32 33 34 35 36 37 38 39 40 41 42 43 44 45 46 47 48 49 50 51 52 53 54,https://www.nytimes.com:443/section/arts/dance:6 7 8 9 10 11 12 13,https://www.nytimes.com:443/column/out-there:3 4 5 6 7 8 9 10,https://en.wikipedia.org:443/wiki/Soccer_in_the_United_States:83,https://www.nytimes.com:443/live/2024/01/19/world/israel-hamas-news/a-un-official-says-israeli-treatment-of-detainees-may-amount-to-torture?smid=url-share:39 40 41 42,https://www.nytimes.com:443/2024/05/02/us/blast-mortar-brain-injury-military.html:10 11 12 13,https://www.ghanaweb.com:443/GhanaHomePage/SportsArchive/Basketball-is-the-biggest-sporting-discipline-in-Ghana-after-football-and-boxing-Yaw-Sakyi-927250:3,https://www.wired.com:443/2016/08/olympic-cities-everywhere/:13,https://www.nytimes.com:443/2024/05/04/us/politics/trump-biden-campaign-young-voters.html:11 12 13 14 15 16,https://www.nytimes.com:443/2024/05/02/style/central-park-hat-luncheon.html:9 10 11 12,https://en.wikipedia.org:443/wiki/National_Football_League:65 66,https://bleacherreport.com:443/articles/2748217-gsp-vacates-belt-champion-robert-whittaker-will-face-luke-rockhold-at-ufc-221:3,https://www.nytimes.com:443/article/wedding-feature-submission-form.html:9 10 11 12 13 14,https://www.nytimes.com:443/interactive/2021/07/07/opinion/minimum-corporate-tax.html:16 17 18,https://www.nytimes.com:443/section/obituaries:9 10 11 12 13 14 15 16 17 18,https://www.nytimes.com:443/section/fashion/weddings:6 7 8 9 10 11 12 13 14 15 16 17 18 19 20 21,https://www.nytimes.com:443/2024/05/04/us/kentucky-derby-race-photos.html:4 5 6 7,https://en.wikipedia.org:443/wiki/Baseball:81,https://www.nytimes.com:443/video/op-docs:4 5 6 7 8 9 10 11 12 13 14,https://en.wikipedia.org:443/wiki/Agriculture_in_the_United_States:53,https://www.businessinsider.com:443/a-timeline-of-trumps-efforts-to-overturn-the-2020-election-2021-10:19 20 21 22 23 24 25 26 27 28 29 30 31 32 33,https://www.nytimes.com:443/books/best-sellers/:23 24 25 26 27 28 29,https://www.nytimes.com:443/2024/04/14/fashion/vintage-watches-reissued.html:10 11 12 13 14 15,https://www.nytimes.com:443/section/books/review:7 8 9 10 11 12 13 14,https://www.nfl.com:443/teams/seattle-seahawks/:8,https://www.nytimes.com:443/2024/05/04/world/europe/sadiq-khan-london-mayor-results.html:10 11 12 13 14 15,https://en.wikipedia.org:443/wiki/Fenway_Park:76,https://en.wikipedia.org:443/wiki/Colonial_history_of_the_United_States:96,https://www.nytimes.com:443/section/opinion/sunday:4 5 6 7 8 9,https://www.nytimes.com:443/section/opinion:11 12 13 14 15 16 17 18 19 20,https://www.nfl.com:443/teams/philadelphia-eagles/:7,https://www.nytimes.com:443/section/magazine:6 7 8 9 10 11 12,https://www.nytimes.com:443/2024/05/04/nyregion/columbia-protests-arrest-agitators-israel.html:25 26 27 28,https://www.nytimes.com:443/section/learning:8 9 10 11 12 13 14 15 16 17,https://www.nytimes.com:443/section/arts/television?page=3:8 9 10 11 12 13 14 15 16 17 18 19,https://www.usatoday.com:443/for-subscribers/:4,https://cooking.nytimes.com:443/recipes/1016295-mint-julep:15 16,https://www.patriots.com:443/team/players-roster/:9 10 11,https://www.indycar.com:443/news/2022/02/02-22-internationaltv:11,https://nytlicensing.com:443/magazines/:9,https://www.nytimes.com:443/spotlight/graphics?page=10:39 40 41 42 43 44 45 46 47 48 49 50 51 52 53 54 55 56 57 58 59 60 61 62 63 64 65 66,https://www.nytimes.com:443/column/unhitched:3 4 5 6 7 8,https://www.patriots.com:443/news/ben-coates-elected-to-patriots-hall-of-fame-140866:21 22 23 24 25,https://www.nytimes.com:443/section/magazine?page=8:20 21 22 23 24 25 26 27 28 29 30 31 32 33 34 35 36 37 38 39 40,https://www.nytimes.com:443/by/liam-stack:5,https://www.independent.co.uk:443/extras/indybest/house-garden:21,https://www.nytimes.com:443/slideshow/2007/12/27/obituaries/notable-obits-slideshow_index.html:1 2,https://www.nytimes.com:443/section/world:26 27 28 29 30 31 32 33 34 35 36 37,https://www.nytimes.com:443/2024/04/22/us/politics/israel-gaza-hamas-war.html:28 29 30 31,https://www.nytimes.com:443/section/t-magazine:10 11 12 13 14 15 16 17 18 19 20 21,https://www.nytimes.com:443/2022/11/03/insider/what-to-expect-at-this-years-crucial-climate-summit.html:7 8 9 10 11 12,https://www.nytimes.com:443/section/sports:2 3 4 5 6 7,https://www.nytimes.com:443/section/todayspaper:6 7 8 9 10 11 12 13 14 15 16 17 18 19,https://www.nytimes.com:443/2024/05/03/opinion/campus-protests-israel-gaza.html:31 32 33 34 35,https://bolavip.com:443/en/info/privacy:28 29 30 31 32 33 34 35 36 37 38,https://www.sportsbusinessjournal.com:443/Daily/Issues/2024/04/29.aspx:11 12 13,https://www.theguardian.com:443/sport/2017/aug/19/will-mcgregor-v-mayweather-save-american-boxing-or-bury-it?CMP=share_btn_link:10,https://en.wikipedia.org:443/wiki/Prescription_drug_prices_in_the_United_States:94,https://www.commanders.com:443/news/commanders-agree-to-trade-de-montez-sweat-to-chicago-bears:8 9,https://en.wikipedia.org:443/wiki/History_of_the_United_States_(1945%E2%80%931964):123 124,https://www.nytimes.com:443/2024/04/02/world/middleeast/gaza-al-shifa-hospital.html:19 20 21 22,https://www.nytimes.com:443/interactive/2024/05/03/opinion/global-billionaires-tax.html:10 11 12,https://www.nytimes.com:443/section/nyregion:8 9 10 11 12 13 14 15 16 17,https://nytlicensing.com:443/timesdigest/:14 15 16 17,https://www.nytimes.com:443/news-event/israel-hamas-gaza:13 14 15 16 17,https://www.sbncollegehockey.com:443/high-school-hockey/2015/3/7/8167923/2015-minnesota-boys-high-school-total-attendance-record-135618:8,https://www.nytimes.com:443/news-event/weather-climate:3 4 5 6 7 8 9 10 11 12,https://www.almanac.com:443/fact/how-much-is-two-bits-and-where:2 3 4 5,https://en.wikipedia.org:443/wiki/The_Washington_Post:59 60 61 62 63 64 65,https://en.wikipedia.org:443/wiki/Snowboarding:41,https://bolavip.com:443/en/info/terms-conditions:16 17 18 19 20 21 22,https://www.nytimes.com:443/2024/04/17/opinion/venezuela-oil-sanctions.html:11 12 13 14 15 16,https://www.nytimes.com:443/by/pamela-paul:6,https://www.nytimes.com:443/2024/05/04/nyregion/trump-trial-scandals-testimony.html:13 14 15 16 17 18,https://www.nytimes.com:443/spotlight/visual-investigations:17 18 19 20 21 22 23 24 25 26 27 28 29 30,https://www.nytimes.com:443/2024/05/04/opinion/chronic-illness-vaccines-long-covid.html:8 9 10 11 12 13 14,https://www.nytimes.com:443/2024/03/30/opinion/abortion-drug-supreme-court.html:44 45 46 47 48 49,https://www.nytimes.com:443/2024/05/03/theater/the-miser-review-brooklyn.html:10 11 12 13 14 15 16,https://www.foodnetwork.com:443/:3,https://www.nytimes.com:443/section/well:7 8 9 10 11 12 13 14 15 16 17 18,https://www.independent.co.uk:443/sport/us-sport/nba/draft-2020-what-time-start-uk-b1725070.html:8,https://www.nytimes.com:443/2024/04/18/nyregion/trump-trial-jury-hush-money.html:10 11 12 13 14,https://www.nytimes.com:443/section/politics:9 10 11 12 13 14 15 16 17 18,https://www.nytimes.com:443/2024/05/02/arts/design/petrit-halilaj-kosovo-met-roof.html:22 23 24 25,https://en.wikipedia.org:443/wiki/Fashion_in_the_United_States:21 22,https://www.businessinsider.com:443/personal-finance/mortgages:19,https://www.nytimes.com:443/spotlight/connections-companion:2 3 4 5 6 7,https://en.wikipedia.org:443/wiki/MLS:79 80,https://www.independent.co.uk:443/tv/travel-smart:11,https://www.nytimes.com:443/spotlight/pop-culture:3 4 5 6 7 8 9 10,https://www.packers.com:443/community/shareholders:16 17,https://www.nytimes.com:443/section/opinion?page=5:19 20 21 22 23 24 25 26 27 28 29 30 31 32 33 34,https://www.nytimes.com:443/2024/05/03/opinion/us-africa-niger-chad.html:11 12 13 14 15 16,https://www.nytimes.com:443/live/2024/05/03/world/israel-gaza-war-hamas:28 29 30 31,https://cooking.nytimes.com:443/:6 7 8,https://www.nytimes.com:443/2024/05/04/opinion/alexandria-ocasio-cortez.html:23 24 25 26 27 28,https://cooking.nytimes.com:443/recipes/1013611-rhubarb-upside-down-cake:25 26,https://www.nytimes.com:443/2024/05/04/business/energy-environment/tesla-electric-vehicles-supercharger.html:12 13 14 15 16 17,https://www.nytimes.com:443/live/2024/05/04/us/college-campus-protests:58 59 60 61 62 63 64 65 66 67,https://www.thetimes.co.uk:443/article/susan-hall-tory-mayoral-candidate-liked-tweet-praising-enoch-powell-zqsr6lvfk:9 10,https://www.nytimes.com:443/2024/04/18/t-magazine/chalet-des-iles-paris-restaurant.html:9 10 11 12 13,https://www.nytimes.com:443/2024/05/02/learning/word-of-the-day-rapport.html:4 5 6 7 8 9,https://www.nytimes.com:443/section/opinion/contributors:6 7 8 9 10 11,https://www.nytimes.com:443/reviews/dining:3 4 5 6,https://www.telegraph.co.uk:443/news/worldnews/asia/afghanistan/8693247/Secret-peace-talks-between-US-and-Taliban-collapse-over-leaks.html:5 6,https://www.nytimes.com:443/section/education:9 10 11 12 13 14 15 16,https://www.nytimes.com:443/section/corrections:3 4 5 6 7 8 9 10,https://www.nytimes.com:443/section/arts/music:5 6 7 8 9 10 11 12,https://www.nytimes.com:443/section/reader-center:3 4 5 6 7 8 9 10 11 12 13 14,https://www.nytimes.com:443/2024/05/04/world/middleeast/cindy-mccain-gaza-famine.html:11 12 13 14 15,https://www.nytimes.com:443/column/field-notes:3 4 5 6 7 8,https://www.nytimes.com:443/2024/05/04/world/europe/uk-rishi-sunak-conservatives-elections.html:10 11 12 13 14 15 16,https://www.businessinsider.com:443/real-estate:14 15 16 17 18 19 20 21 22 23 24 25 26 27,https://www.nytimes.com:443/article/trump-hush-money-trial-transcripts.html:6 7 8 9 10,https://en.wikipedia.org:443/wiki/Vietnam_War:194,https://www.nytimes.com:443/2024/05/03/arts/television/jimmy-kimmel-donald-trump-trial.html:6 7 8 9 10 11,https://www.theguardian.com:443/us-news/2020/aug/25/qanon-conspiracy-theory-explained-trump-what-is:21,https://www.independent.co.uk:443/competitions:1,https://www.nytimes.com:443/section/travel:5 6 7 8 9 10 11 12 13 14,https://www.nytimes.com:443/spotlight/nyt-events?page=2:6 7 8 9 10 11 12 13 14 15 16 17 18,https://www.nytimes.com:443/video/us/100000007348445/breonna-taylor-death-cops.html:15 16 17 18 19 20 21 22 23 24 25,https://www.usatoday.com:443/news/nation/:5,https://wtop.com:443/virginia/2020/01/virginia-becomes-38th-state-to-ratify-equal-rights-amendment-but-it-may-be-too-late/:10 11,https://www.nytimes.com:443/2009/01/05/opinion/05krugman.html:8 9 10 11 12 13 14,https://www.nytimes.com:443/2024/04/24/podcasts/laufey-gen-zs-jazz-icon-sings-for-anxious-generation.html:14 15 16,https://www.sbnation.com:443/2014/10/5/6916597/nba-new-tv-deal-espn-turner-24-billion:3,https://www.nytimes.com:443/section/science?page=9:33 34 35 36 37 38 39 40 41 42 43 44 45 46 47 48 49 50 51 52 53 54 55 56 57 58,https://www.theguardian.com:443/info/privacy:1,https://www.nytimes.com:443/section/business:6 7 8 9 10 11 12 13 14 15,https://www.nytimes.com:443/2024/05/03/us/abortion-rights-missouri-south-dakota.html:38 39 40 41 42 43,https://www.usatoday.com:443/story/sports/soccer/2017/02/02/nwsl-matches-will-be-shown-on-lifetime-each-saturday/97394336/:5,https://www.nytimes.com:443/2019/06/19/us/newsom-native-american-apology.html:13 14 15 16 17 18,https://www.nytimes.com:443/2024/05/03/books/cj-sansom-dead.html:6 7 8 9 10 11,https://www.nytimes.com:443/by/emily-cochrane:4,https://www.nytimes.com:443/section/opinion/editorials:5 6 7 8 9 10,https://www.nytimes.com:443/section/nyregion?page=4:16 17 18 19 20 21 22 23 24 25 26 27 28 29,https://advertising.nytimes.com:443/:2 3 4 5 6,https://www.nytimes.com:443/spotlight/nytimesineducation:17 18 19 20 21 22 23 24 25 26 27 28 29 30 31 32 33 34 35,https://www.nytimes.com:443/2024/04/29/learning/what-should-be-done-about-the-gender-pay-gap-in-sports.html:6 7 8 9 10 11,https://www.nytimes.com:443/section/health?page=7:33 34 35 36 37 38 39 40 41 42 43 44 45 46 47 48 49 50 51 52 53 54,https://www.nytimes.com:443/interactive/2023/us/politics/presidential-candidates-2024.html:14 15 16 17 18,https://en.wikipedia.org:443/wiki/Forbes:20 21,https://www.saturdaydownsouth.com:443/sports/ranking-top-25-rivalries-college-sports-2023/:5 6,https://www.nytimes.com:443/live/2024/05/02/us/biden-trump-campaign:69 70 71 72,https://www.nytimes.com:443/interactive/2018/08/25/opinion/sunday/student-debt-loan-default-college.html:5 6 7,https://www.nytimes.com:443/es/:20 21 22 23 24 25 26 27 28 29 30,https://www.nytimes.com:443/2017/11/24/opinion/vietnam-the-chemical-war.html?mtrref=www.google.ca&amp;assetType=opinion:8 9 10 11 12 13,https://www.nfl.com:443/teams/baltimore-ravens/:9,https://www.patriots.com:443/cheerleaders/pat-patriot:8 9 10,https://www.fmfstateofmind.com:443/:14,https://en.wikipedia.org:443/wiki/MLB_Network:29 30 31,https://www.theguardian.com:443/sport/2018/jan/23/aly-raisman-olympic-committee-larry-nassar-abuse-case:28,https://cooking.nytimes.com:443/recipes/1025421-creole-broiled-shrimp-and-baby-corn:9 10,https://cooking.nytimes.com:443/recipes/1019333-millionaires-shortbread:12 13,https://www.nytimes.com:443/column/global-health:2 3 4 5 6 7,https://www.law.cornell.edu:443/supremecourt/text/74/700:137 138,https://www.nytimes.com:443/2023/11/21/dining/restaurant-review-bangkok-supper-club.html?rref=collection%2Fcollection%2Frestaurant-guide:7 8 9 10 11 12,https://www.nytimes.com:443/section/corrections?page=5:18 19 20 21 22 23 24 25 26 27 28 29 30 31 32 33,https://www.nytimes.com:443/2024/05/02/business/horse-racing-deaths-kentucky-derby.html:14 15 16 17 18,https://www.nytimes.com:443/spotlight/podcasts:27 28 29 30 31 32 33 34 35 36 37 38 39 40 41 42 43 44 45 46 47 48 49,https://en.wikipedia.org:443/wiki/Boston:101,https://www.nytimes.com:443/2024/05/01/us/free-speech-campus-protests.html:22 23 24 25 26 27,https://www.nytimes.com:443/2024/05/03/style/modern-love-we-didnt-know-it-was-the-last-time.html:5 6 7 8 9 10,https://www.patriots.com:443/news/check-out-the-2016-patriots-color-rush-jerseys-270621:16 17 18 19 20,https://www.nytimes.com:443/sitemap/:2,https://en.wikipedia.org:443/wiki/Sports_in_the_United_States:47,https://www.nfl.com:443/teams/indianapolis-colts/:9,https://www.nytimes.com:443/2013/01/12/opinion/is-this-the-afghan-wars-last-chapter.html?_r=3&amp;:9 10 11 12 13 14 15,https://stmarysmusings.sbnation.com:443/:9,https://cooking.nytimes.com:443/recipes/1022283-country-panzanella-with-watermelon-dressing:13 14,https://www.nytimes.com:443/gift-articles:2,https://www.theguardian.com:443/sport/2004/jul/27/cricket.comment:6,https://www.businessinsider.com:443/s:6 7 8 9 10 11 12 13 14 15 16 17,https://www.nytimes.com:443/section/opinion/columnists:4 5 6 7 8 9,https://www.nytimes.com:443/issue/magazine/2024/04/12/the-41424-issue:4 5 6 7,https://en.wikipedia.org:443/wiki/NBA:70 71,https://www.nytimes.com:443/interactive/2024/nyregion/trump-manhattan-criminal-trial-witnesses.html:9 10 11,https://www.nfl.com:443/standings/conference/2023/REG:7 8,https://www.nytimes.com:443/video/last-word:25 26 27 28 29 30 31 32 33 34 35,https://www.nytimes.com:443/2024/05/04/world/europe/russia-soldiers-women.html:21 22 23 24 25 26 27 28 29 30,https://www.nytimes.com:443/newsletters:2,https://www.nytimes.com:443/series/opinion-audio:9 10 11 12,https://www.nytimes.com:443/2024/05/03/opinion/nuclear-power-energy.html:13 14 15 16 17 18,https://cooking.nytimes.com:443/recipes/1024760-chocolate-layer-cake:21 22,https://en.wikipedia.org:443/wiki/Culture_of_the_United_States:106 107,https://www.usatoday.com:443/story/sports/mlb/2013/08/11/fox-sports-1-versus-espn/2641247/:23 24 25,https://www.nytimes.com:443/2024/05/04/opinion/gaza-child-deaths.html:4 5 6 7 8 9,https://en.wikipedia.org:443/wiki/Olympic_Games:65 66 67 68 69 70,https://www.nytimes.com:443/2024/04/26/us/politics/kristi-noem-dog-killing.html:7 8 9 10 11,https://www.nytimes.com:443/2014/11/11/technology/obama-net-neutrality-fcc.html:21 22 23 24 25 26,https://www.nytimes.com:443/:10 11 12 13 14 15 16 17 18 19 20,https://www.nytimes.com:443/2024/05/03/world/europe/campus-protests-rorschach-test.html:18 19 20 21,https://www.sportsbusinessjournal.com:443/Journal/Issues/2012/04/02/Media/Fox-channel.aspx:13 14 15,https://www.nytimes.com:443/column/op-docs:8 9 10 11 12 13 14 15,https://cooking.nytimes.com:443/recipes/1023559-ina-gartens-bourbon-chocolate-pecan-pie:13 14,https://www.nytimes.com:443/2024/04/29/realestate/renters-astoria-queens.html:8 9 10 11 12 13,https://www.nytimes.com:443/2024/04/24/us/palestinian-family-gaza-war-death.html:85 86 87 88,https://www.nytimes.com:443/2024/05/04/style/nonalcoholic-drinks-kids-mocktail.html:14 15 16 17,https://www.nytimes.com:443/2017/06/26/health/undocumented-immigrants-health-care.html:10 11 12 13 14 15,https://www.nytimes.com:443/2024/05/04/us/politics/biden-insulin-voters-drugs.html:18 19 20 21 22 23 24,https://www.nytimes.com:443/2024/05/02/us/politics/abortion-ballot-measures-2024.html:45 46 47 48 49 50,https://www.nytimes.com:443/live/2024/05/04/us/biden-trump-campaign:8 9 10 11,https://www.nytimes.com:443/spotlight/podcasts?page=6:39 40 41 42 43 44 45 46 47 48 49 50 51 52 53 54 55 56 57 58 59 60 61 62 63 64 65 66 67 68 69 70 71,https://www.nytimes.com:443/2024/04/27/opinion/left-right-happiness.html:8 9 10 11 12 13,https://www.nytimes.com:443/spotlight/connections-companion?page=4:2 3 4 5 6 7 8 9 10 11 12 13,https://www.businessinsider.com:443/fastest-growing-sport-in-america-2011-9:10 11 12 13 14 15 16 17,https://www.nytimes.com:443/2024/04/27/us/politics/trump-trial-fact-check.html:13 14 15 16 17 18,https://www.nytimes.com:443/2023/04/14/us/politics/mike-pompeo-president-2024.html:14 15 16 17 18 19 