allen allen-0 3775 https://en.wikipedia.org:443/wiki/Prescription_drug_prices_in_the_United_States:150,https://en.wikipedia.org:443/wiki/Horse_racing_in_the_United_States:24,https://en.wikipedia.org:443/wiki/American_exceptionalism:107,https://en.wikipedia.org:443/wiki/National_Football_League:178,https://en.wikipedia.org:443/wiki/Colonial_history_of_the_United_States:218,https://en.wikipedia.org:443/wiki/Immigrant_health_care_in_the_United_States:176 177,https://en.wikipedia.org:443/wiki/Sports_in_Washington:50 51,https://en.wikipedia.org:443/wiki/American_League:34 35,https://en.wikipedia.org:443/wiki/USA_Baseball:116,https://en.wikipedia.org:443/wiki/Inter_Miami:117,https://www.espn.com:443/college-football/boxscore/_/gameId/401520417:13 14,https://en.wikipedia.org:443/wiki/Sports_in_Kentucky:58,https://en.wikipedia.org:443/wiki/Speaker_of_the_United_States_House_of_Representatives:110,https://en.wikipedia.org:443/wiki/Iroquois:316,https://en.wikipedia.org:443/wiki/International_rankings_of_the_United_States:38,https://en.wikipedia.org:443/wiki/Race_and_maternal_health_in_the_United_States:90,https://en.wikipedia.org:443/wiki/Cold_War:498 499 500 501 502,https://en.wikipedia.org:443/wiki/Bureau_of_Diplomatic_Security:243,https://en.wikipedia.org:443/wiki/War_in_Afghanistan_(2001%E2%80%932021):1414,http://www.redsoxdiehard.com:80/players/unifnums.html:69 70 71 72,https://en.wikipedia.org:443/wiki/The_Washington_Post:107 108,https://en.wikipedia.org:443/wiki/National_Reconnaissance_Office:228,https://www.azcentral.com:443/story/sports/nfl/cardinals/2015/09/06/nfls-dynasties-decade/71605710/:18,https://en.wikipedia.org:443/wiki/New_England_Patriots:297 298 299 300 301,https://en.wikipedia.org:443/wiki/Terrorism_in_the_United_States:390 391 392 393,https://en.wikipedia.org:443/wiki/List_of_mountains_of_the_United_States:173 174,https://en.wikipedia.org:443/wiki/Special_district_(United_States):47,https://en.wikipedia.org:443/wiki/United_States_Declaration_of_Independence:257,https://en.wikipedia.org:443/wiki/History_of_the_United_States_(1849%E2%80%931865):133,https://en.wikipedia.org:443/wiki/Articles_of_Confederation:166,https://en.wikipedia.org:443/wiki/2023_Big_Ten_Conference_football_season:71 72 73 74 75 76 77 78 79 80 81 82 83 84 85 86,https://en.wikipedia.org:443/wiki/Great_Recession_in_the_United_States:106 107,https://en.wikipedia.org:443/wiki/Boston:182,https://en.wikipedia.org:443/wiki/Time_in_the_United_States:39,https://en.wikipedia.org:443/wiki/Democratic_Party_(United_States):342 343,https://en.wikipedia.org:443/wiki/Southern_United_States:227,https://en.wikipedia.org:443/wiki/List_of_current_United_States_district_judges:219 220 221 222 223 224,https://en.wikipedia.org:443/wiki/New_England:187,https://en.wikipedia.org:443/wiki/Education_in_the_United_States:332,https://en.wikipedia.org:443/wiki/History_of_the_United_States_(1945%E2%80%931964):220 221 222,https://commons.wikimedia.org:443/wiki/Category:Sports_in_the_United_States:13,https://en.wikipedia.org:443/wiki/Major_Arena_Soccer_League:33,https://en.wikipedia.org:443/wiki/Vietnam_War:454 455 456 457 458 459 460,https://stmarysmusings.sbnation.com:443/:15 16 17 18 19 20,https://en.wikipedia.org:443/wiki/Consolidated_city-county:73,https://en.wikipedia.org:443/wiki/Jack_Nicklaus:144 145 146 147 148,https://bolavip.com:443/en:14 15,https://en.wikipedia.org:443/wiki/Baseball:128,https://en.wikipedia.org:443/wiki/Fenway_Park:133,https://en.wikipedia.org:443/wiki/American_Revolution:343 344,https://en.wikipedia.org:443/wiki/Indiana:183 184 185 186 187,https://en.wikipedia.org:443/wiki/Agriculture_in_the_United_States:281,https://en.wikipedia.org:443/wiki/National_League_(baseball):87 88,https://www.espn.com:443/college-football/boxscore/_/gameId/401520265:9 10 