allow allow-0 10873 https://en.wikipedia.org:443/wiki/History_of_the_United_States_(1945%E2%80%931964):234 235 236,https://www.nytimes.com:443/live/2024/05/02/us/biden-trump-campaign:98 99,https://www.azcentral.com:443/story/sports/nfl/cardinals/2015/09/06/nfls-dynasties-decade/71605710/:19 20,https://en.wikipedia.org:443/wiki/Speaker_of_the_United_States_House_of_Representatives:115 116,https://www.businessinsider.com:443/s:27,https://en.wikipedia.org:443/wiki/IndyCar_Series:134 135 136 137 138,https://www.nytimes.com:443/2024/05/04/opinion/fat-activist-freedom-health.html:44,https://theconversation.com:443/the-rise-and-rise-of-ultimate-fighting-and-why-boxing-is-now-so-passe-55910:15,https://millercenter.org:443/president/adams/essays/clay-1825-secretary-of-state:21,https://en.wikipedia.org:443/wiki/Education_in_the_United_States:333 334 335 336,https://www.nytimes.com:443/2024/05/04/world/europe/russia-soldiers-women.html:45,https://www.nytimes.com:443/2024/05/02/business/horse-racing-deaths-kentucky-derby.html:29 30,https://en.wikipedia.org:443/wiki/Olympic_Games:192 193 194 195 196 197 198 199 200 201 202 203 204 205 206 207 208,https://en.wikipedia.org:443/wiki/Soccer_in_the_United_States:166 167 168 169,https://en.wikipedia.org:443/wiki/War_in_Afghanistan_(2001%E2%80%932021):1445 1446 1447,https://www.nytimes.com:443/live/2024/01/19/world/israel-hamas-news/a-un-official-says-israeli-treatment-of-detainees-may-amount-to-torture?smid=url-share:96,https://www.businessinsider.com:443/real-estate:51 52,https://en.wikipedia.org:443/wiki/American_exceptionalism:110 111,https://commons.wikimedia.org:443/wiki/Commons:Upload:7,https://www.nytimes.com:443/2024/05/02/arts/design/petrit-halilaj-kosovo-met-roof.html:39,https://en.wikipedia.org:443/wiki/Great_Recession_in_the_United_States:108 109,https://en.wikipedia.org:443/wiki/United_States_Public_Health_Service_Commissioned_Corps:109,https://en.wikipedia.org:443/wiki/Powers_of_the_president_of_the_United_States:127,https://www.nytimes.com:443/section/opinion?page=5:46,https://en.wikipedia.org:443/wiki/Architecture_of_the_United_States:109 110 111,https://en.wikipedia.org:443/wiki/Sports_in_the_United_States:87,https://en.wikipedia.org:443/wiki/NBA:118 119 120 121 122,https://en.wikipedia.org:443/wiki/Comparison_of_U.S._state_and_territory_governments:47 48,https://en.wikipedia.org:443/wiki/Municipal_council:62 63 64 65,https://en.wikipedia.org:443/wiki/Inter_Miami:121 122,https://en.wikipedia.org:443/wiki/Maternal_mortality_in_the_United_States:145,https://en.wikipedia.org:443/wiki/American_League:36 37,https://www.nytimes.com:443/by/charles-m-blow:6,https://en.wikipedia.org:443/wiki/Ice_hockey:76 77 78 79 80 81 82 83 84,https://en.wikipedia.org:443/wiki/Sports_in_Finland:39,https://en.wikipedia.org:443/wiki/Spanish%E2%80%93American_War:309 310 311,https://archive.curbed.com:443/2020/1/13/21026108/public-housing-faircloth-amendment-election-2020:40 41,https://en.wikipedia.org:443/wiki/Sports_in_Brunei:46,https://www.nytimes.com:443/column/global-health:21,https://en.wikipedia.org:443/wiki/United_States_men%27s_national_soccer_team:178 179 180 181,https://en.wikipedia.org:443/wiki/Fashion_in_the_United_States:42,https://en.wikipedia.org:443/wiki/Timeline_of_United_States_inventions_(after_1991):69 70 71,https://en.wikipedia.org:443/wiki/United_States_Declaration_of_Independence:267 268,https://en.wikipedia.org:443/wiki/Iroquois:351 352 353 354 355 356,https://www.nytimes.com:443/2024/04/24/podcasts/laufey-gen-zs-jazz-icon-sings-for-anxious-generation.html:25 26,https://www.theguardian.com:443/uk/2010/may/04/sainsburys-sponsors-paralympic-games:6,https://www.cnn.com:443/2020/09/26/politics/supreme-court-conservative/index.html:46,https://www.nytimes.com:443/2024/04/27/us/politics/trump-trial-fact-check.html:26 27,https://en.wikipedia.org:443/wiki/Sports_in_Armenia:47,https://en.wikipedia.org:443/wiki/Beach_volleyball:59 60 61 62 63 64 65 66 67 68 69 70 71,https://www.nytimes.com:443/2024/05/04/nyregion/trump-trial-scandals-testimony.html:28,https://www.nytimes.com:443/2024/05/04/world/middleeast/cindy-mccain-gaza-famine.html:31 32,https://en.wikipedia.org:443/wiki/Drug_Enforcement_Administration:318 319 320,https://www.fmfstateofmind.com:443/:21,https://en.wikipedia.org:443/wiki/Agriculture_in_the_United_States:283,https://en.wikipedia.org:443/wiki/National_Football_League:187 188 189 190,https://en.wikipedia.org:443/wiki/Sports_in_Ghana:138,https://www.nytimes.com:443/live/2024/05/04/us/college-campus-protests:95,https://en.wikipedia.org:443/wiki/Sports_in_India:241 242 243 244 245 246,https://en.wikipedia.org:443/wiki/Snowboarding:76 77 78 79,https://www.nytimes.com:443/2024/04/20/health/seniors-home-equity-mortgages.html:44,https://en.wikipedia.org:443/wiki/Sports_in_Papua_New_Guinea:17,https://en.wikipedia.org:443/wiki/USA_Cricket:54,https://en.wikipedia.org:443/wiki/Colonial_history_of_the_United_States:223 224 225 226 227 228 229,https://en.wikipedia.org:443/wiki/USA_Baseball:118 119,https://en.wikipedia.org:443/wiki/National_Boxing_Association:40,https://www.nytimes.com:443/section/magazine?page=8:47,https://en.wikipedia.org:443/wiki/Culture_of_the_United_States:246 247,https://www.nytimes.com:443/2024/04/29/realestate/renters-astoria-queens.html:22 23,https://www.nytimes.com:443/interactive/2024/02/01/magazine/israel-founding-palestinian-conflict.html:35 36,https://en.wikipedia.org:443/wiki/National_Reconnaissance_Office:232,https://en.wikipedia.org:443/wiki/Volleyball:84 85 86 87 88 89 90 91 92 93 94 95 96 97,https://en.wikipedia.org:443/wiki/Vietnam_War:487 488 489 490,https://en.wikipedia.org:443/wiki/Sports_in_South_Korea:31 32,https://en.wikipedia.org:443/wiki/Horse_racing_in_the_United_States:26,https://cooking.nytimes.com:443/recipes/1018626-eggs-benedict:82,https://en.wikipedia.org:443/wiki/Boston_Red_Sox:179 180 181 182 183 184,https://en.wikipedia.org:443/wiki/United_States_federal_civil_service:110 111,https://en.wikipedia.org:443/wiki/Constitution_of_the_United_States:285 286 287 288 289 290 291 292 293 294 295,https://en.wikipedia.org:443/wiki/Wikipedia:File_upload_wizard:42,https://en.wikipedia.org:443/wiki/MLS:155 156 157 158 159,https://en.wikipedia.org:443/wiki/Time_in_the_United_States:40,https://www.nytimes.com:443/2024/03/30/opinion/abortion-drug-supreme-court.html:61,https://cooking.nytimes.com:443/recipes/1016295-mint-julep:64,https://en.wikipedia.org:443/wiki/Cable_television:97 98 99 100 101,https://en.wikipedia.org:443/wiki/Antisemitism_in_the_United_States:141,https://en.wikipedia.org:443/wiki/National_Federation_of_State_High_School_Associations:78,https://en.wikipedia.org:443/wiki/National_League_(baseball):89,https://en.wikipedia.org:443/wiki/Bureau_of_Diplomatic_Security:245,https://www.nytimes.com:443/section/nyregion?page=4:38,https://www.nytimes.com:443/2024/05/03/us/abortion-rights-missouri-south-dakota.html:45,https://en.wikipedia.org:443/wiki/Articles_of_Confederation:176 177,https://en.wikipedia.org:443/wiki/College_basketball:80 81 82 83 84 85 86 87 88 89 90 91 92 93 94 95 96 97 98,https://en.wikipedia.org:443/wiki/Summer_Olympic_Games:76 77 78 79,https://en.wikipedia.org:443/wiki/United_States_dollar:116,https://en.wikipedia.org:443/wiki/Terrorism_in_the_United_States:397,https://www.nytimes.com:443/2024/04/02/world/middleeast/gaza-al-shifa-hospital.html:27 28 29,https://www.nytimes.com:443/2022/02/11/sports/horse-racing/medina-spirit-kentucky-derby-necropsy.html?searchResultPosition=2:12,https://en.wikipedia.org:443/wiki/Literacy_in_the_United_States:253 254 255 256,https://www.nytimes.com:443/2024/05/04/opinion/trump-second-term-illiberalism.html:31,https://www.nytimes.com:443/live/2024/05/03/world/israel-gaza-war-hamas:66 67,https://en.wikipedia.org:443/wiki/Henley_Royal_Regatta:48 49 50,https://www.nytimes.com:443/live/2024/05/04/world/israel-gaza-war-hamas:86,https://www.nytimes.com:443/news-event/israel-hamas-gaza:25,https://en.wikipedia.org:443/wiki/New_England_Patriots:302 303 304 305 306,https://en.wikipedia.org:443/wiki/Southern_United_States:232 233 234 235 236,https://www.nytimes.com:443/2024/04/17/opinion/venezuela-oil-sanctions.html:20 21,https://en.wikipedia.org:443/wiki/The_Washington_Post:110,https://www.nytimes.com:443/interactive/2024/05/03/us/ucla-protests-encampment-violence.html:19,https://en.wikipedia.org:443/wiki/Environmental_issues_in_the_United_States:133 134 135,https://en.wikipedia.org:443/wiki/American_Revolution:376 377 378 379 380,https://en.wikipedia.org:443/wiki/Town_meeting:72 73,https://www.nytimes.com:443/spotlight/visual-investigations:74,https://en.wikipedia.org:443/wiki/History_of_the_United_States_(1849%E2%80%931865):135,https://www.theatlantic.com:443/magazine/archive/2023/01/homelessness-affordable-housing-crisis-democrats-causes/672224/:40 41 42,https://en.wikipedia.org:443/wiki/Tribal_sovereignty_in_the_United_States:110 111,https://www.nytimes.com:443/spotlight/graphics?page=10:115,https://www.nytimes.com:443/2024/04/24/us/palestinian-family-gaza-war-death.html:114,https://en.wikipedia.org:443/wiki/Jack_Nicklaus:151 152,https://en.wikipedia.org:443/wiki/Supreme_Court_of_the_United_States:341 342 343 344 345 346 347 348 349,https://www.nytimes.com:443/2024/04/22/us/politics/israel-gaza-hamas-war.html:52 53,https://en.wikipedia.org:443/wiki/History_of_the_United_States_(2008%E2%80%93present):310 311,https://en.wikipedia.org:443/wiki/Portal:Current_events:70,https://www.law.cornell.edu:443/supremecourt/text/74/700:199,https://en.wikipedia.org:443/wiki/United_States_Olympic_%26_Paralympic_Committee:102 103,https://en.wikipedia.org:443/wiki/Sports_in_Maryland:65,https://en.wikipedia.org:443/wiki/History_of_the_United_States_debt_ceiling:60 61,https://en.wikipedia.org:443/wiki/Prescription_drug_prices_in_the_United_States:157 158 159 160 161,https://www.nytimes.com:443/2005/09/18/opinion/conventional-wisdom.html:20 21,https://www.nytimes.com:443/interactive/2024/05/03/opinion/global-billionaires-tax.html:21,https://en.wikipedia.org:443/wiki/Greenhouse_gas_emissions_by_the_United_States:126 127 128 129 130 131 132,https://en.wikipedia.org:443/wiki/College_athletics_in_the_United_States:120 121 122 123 124,https://www.nytimes.com:443/2014/11/11/technology/obama-net-neutrality-fcc.html:38,https://en.wikipedia.org:443/wiki/Baseball:129 130 131 132 133 134,https://www.nytimes.com:443/section/arts/music:21,https://en.wikipedia.org:443/wiki/Cold_War:568 569 570 571 572 573 574 575 576 577,https://en.wikipedia.org:443/wiki/U.S._Immigration_and_Customs_Enforcement:320,https://en.wikipedia.org:443/wiki/Professional_boxer:29 30 31,https://history.army.mil:443/books/wwii/persian/index.htm:41,https://www.nytimes.com:443/2017/06/26/health/undocumented-immigrants-health-care.html:27,https://www.nytimes.com:443/2024/05/02/us/blast-mortar-brain-injury-military.html:19 20 