app app-0 7760 https://en.wikipedia.org:443/wiki/Bureau_of_Diplomatic_Security:311,https://www.theguardian.com:443/us-news/2019/dec/29/synagogue-stabbings-three-hurt-in-monsey-attack-say-reports:29,https://www.patriots.com:443/team/players-roster/:41 42 43,https://cooking.nytimes.com:443/topics/our-best-pasta-recipes:21,https://en.wikipedia.org:443/wiki/Indiana:341,https://www.azcentral.com:443/story/sports/nfl/cardinals/2015/09/06/nfls-dynasties-decade/71605710/:27,https://www.ncaa.org:443/sports/2021/4/21/division-ii-academics.aspx:14,https://www.theguardian.com:443/us/soccer:42,https://www.patriots.com:443/cheerleaders/pat-patriot:21 32 33,https://www.nytimes.com:443/subscription:9,https://www.saturdaydownsouth.com:443/sports/ranking-top-25-rivalries-college-sports-2023/:51 52,https://www.nytimes.com:443/crosswords:3,https://bolavip.com:443/en/info/terms-conditions:29,https://www.nytimes.com:443/privacy/cookie-policy:49 50 51,https://www.sportsbusinessjournal.com:443/Daily/Issues/2024/04/29.aspx:29 30 31,https://www.nfl.com:443/teams/baltimore-ravens/:30 31,https://www.ncaa.org:443/sports/2021/5/3/membership-directory.aspx:8 9,https://www.nytco.com:443/careers/:6,https://en.wikipedia.org:443/wiki/History_of_the_United_States_(2008%E2%80%93present):605,https://www.businessinsider.com:443/s:34,https://www.theguardian.com:443/uk/2010/may/04/sainsburys-sponsors-paralympic-games:16,https://www.commanders.com:443/news/commanders-agree-to-trade-de-montez-sweat-to-chicago-bears:22 23 24,https://www.nytimes.com:443/section/food:30,https://www.nytimes.com:443/spotlight/podcasts:113 114 117,https://www.nytimes.com:443/2024/04/24/podcasts/laufey-gen-zs-jazz-icon-sings-for-anxious-generation.html:106 109,https://en.wikipedia.org:443/wiki/Ice_hockey:171,https://www.theguardian.com:443/sport/nhl:30,https://www.nytimes.com:443/2024/05/03/opinion/campus-protests-israel-gaza.html:78,https://cooking.nytimes.com:443/about-us:28 29 30 31 32 33 34,https://www.businessinsider.com:443/guides/tech:79 80,https://www.ncaa.org:443/sports/2021/5/11/division-i-finances.aspx:20,https://bolavip.com:443/en/info/privacy:49,https://en.wikipedia.org:443/wiki/Soccer_in_the_United_States:369 370 386,https://www.nfl.com:443/standings/:32 33,https://www.independent.co.uk:443/sport/us-sport/nba/draft-2020-what-time-start-uk-b1725070.html:20 21,https://www.businessinsider.com:443/fastest-growing-sport-in-america-2011-9:23 24,https://www.nytimes.com:443/section/magazine?page=8:107,https://cooking.nytimes.com:443/recipes/1024760-chocolate-layer-cake:72,https://cooking.nytimes.com:443/christmas:42,https://www.nytimes.com:443/spotlight/podcasts?page=6:168 169 172,https://www.ncaa.org:443/sb_output.aspx?form=28:8,https://www.cookingchanneltv.com:443/recipes/tia-mowry/spaghetti-and-turkey-meatballs-2803024:35,https://cooking.nytimes.com:443/recipes/1024469-tomato-cheddar-toasts:92,https://www.sportsbusinessjournal.com:443/Journal/Issues/2024/03/04.aspx:36 37 38,https://www.usatoday.com:443/story/sports/mlb/2013/08/11/fox-sports-1-versus-espn/2641247/:54,https://wtop.com:443/virginia/2020/01/virginia-becomes-38th-state-to-ratify-equal-rights-amendment-but-it-may-be-too-late/:41,https://www.independent.co.uk:443/competitions:10,https://cooking.nytimes.com:443/recipes/1025421-creole-broiled-shrimp-and-baby-corn:33,https://www.usatoday.com:443/story/sports/soccer/2017/02/02/nwsl-matches-will-be-shown-on-lifetime-each-saturday/97394336/:10,https://www.telegraph.co.uk:443/news/worldnews/asia/afghanistan/8693247/Secret-peace-talks-between-US-and-Taliban-collapse-over-leaks.html:26 27,https://en.wikipedia.org:443/wiki/Antisemitism_in_the_United_States:539 540 541 542,https://cooking.nytimes.com:443/recipes/1023559-ina-gartens-bourbon-chocolate-pecan-pie:71,https://www.usatoday.com:443/story/sports/mlb/2016/11/03/world-series-tv-television-ratings-chicago-cubs-cleveland-indians/93231896/:8,https://advertising.nytimes.com:443/:9 10,https://www.theguardian.com:443/info/privacy:9,https://cooking.nytimes.com:443/recipes/1019333-millionaires-shortbread:61,https://www.sportsbusinessjournal.com:443/Articles/2023/10/23/mls-sets-attendance-record-for-season:28 29 30,https://www.nfl.com:443/teams/indianapolis-colts/:30 31,https://www.nytimes.com:443/2024/05/02/arts/music/tiktok-universal-music-deal.html:35 36 37 38 39,https://www.usatoday.com:443/story/sports/winter-olympics-2018/2018/02/13/medalists-2018-winter-olympics-get-precious-keepsake-and-medal/332267002/:10,https://www.sportsbusinessjournal.com:443/Archive/Sections/International.aspx:38 39 40,https://en.wikipedia.org:443/wiki/Red_River_of_the_South:61,https://www.theguardian.com:443/sport/2004/jul/27/cricket.comment:49,https://www.packers.com:443/community/shareholders:28 29 30 33 34,https://en.wikipedia.org:443/wiki/Town_meeting:112,https://en.wikipedia.org:443/wiki/Fox_Sports_1:169 170 176,https://www.independent.co.uk:443/extras/indybest/house-garden:36,https://www.battlefields.org:443/preserve/saved-land:41 42,https://www.businessinsider.com:443/a-timeline-of-trumps-efforts-to-overturn-the-2020-election-2021-10:55 56,https://www.patriots.com:443/news/check-out-the-2016-patriots-color-rush-jerseys-270621:55 56 57,https://www.nfl.com:443/standings/conference/2023/REG:29 30,https://www.usatoday.com:443/story/news/politics/2022/08/04/krysten-sinema-inflation-reduction-act-senator-democrats-vote/10234906002/:18,https://cooking.nytimes.com:443/:61,https://www.nytimes.com:443/interactive/2024/03/28/travel/things-to-do-mumbai.html:36,https://www.usatoday.com:443/news/nation/:12,https://www.tlc.com:443/inside-tlc/TLC-Casting:45,https://www.nfl.com:443/teams/seattle-seahawks/:25 26,https://cooking.nytimes.com:443/recipes/1013611-rhubarb-upside-down-cake:84,https://www.nytimes.com:443/puzzles/spelling-bee:3,https://www.patriots.com:443/news/ben-coates-elected-to-patriots-hall-of-fame-140866:53 55 56,https://www.theguardian.com:443/type/video+tone/comment:15,https://www.usatoday.com:443/for-subscribers/:10,https://cooking.nytimes.com:443/recipes/1016295-mint-julep:73,https://www.nfl.com:443/teams/philadelphia-eagles/:24 25,https://en.wikipedia.org:443/wiki/Carlos_Bocanegra:105 106 107 108 109 110 111 112,https://en.wikipedia.org:443/wiki/Forbes:78 79 80,https://cooking.nytimes.com:443/recipes/1022283-country-panzanella-with-watermelon-dressing:78,https://www.sportsbusinessjournal.com:443/Journal/Issues/2012/04/02/Media/Fox-channel.aspx:33 34 35,https://www.nytimes.com:443/wirecutter/:79 80 99 100 101 102 103,https://www.nytimes.com:443/section/learning:24,https://www.sportsbusinessjournal.com:443/Subscribe/Subscription-Landing.aspx:65 66 67 68,https://www.nytimes.com:443/section/technology:37,https://en.wikipedia.org:443/wiki/Sports_in_India:397 414 415 416 417 418 419 420 421 422 423,https://www.theguardian.com:443/us-news/2020/aug/25/qanon-conspiracy-theory-explained-trump-what-is:61,https://www.theguardian.com:443/sport/2018/jan/23/aly-raisman-olympic-committee-larry-nassar-abuse-case:45,https://www.wired.com:443/2016/08/olympic-cities-everywhere/:35,https://cooking.nytimes.com:443/recipes/1018626-eggs-benedict:91,https://www.theguardian.com:443/world/2001/oct/27/afghanistan.terrorism6:41,https://www.indycar.com:443/news/2022/02/02-22-internationaltv:27 28,https://en.wikipedia.org:443/wiki/NBA:230,https://www.independent.co.uk:443/tv/travel-smart:48,https://www.ft.com:443/content/03cc24ca-dc69-4bd6-8f2d-7509b0f6b6f1:88 89 90 91 92 93 94 95 96 97 98 99 100 101 102 103 104 105 106 107 108 109 110 111 112 113 114 117,https://en.wikipedia.org:443/wiki/USA_Baseball:222 223,https://www.cookingchanneltv.com:443/:16,https://www.theguardian.com:443/sport/2017/aug/19/will-mcgregor-v-mayweather-save-american-boxing-or-bury-it?CMP=share_btn_link:62 