ask ask-0 8973 https://en.wikipedia.org:443/wiki/American_exceptionalism:693 694,https://www.nytimes.com:443/2024/03/30/opinion/abortion-drug-supreme-court.html:91,https://www.cnn.com:443/2020/09/26/politics/supreme-court-conservative/index.html:98,https://www.nytimes.com:443/2024/05/02/style/central-park-hat-luncheon.html:43,https://www.nytimes.com:443/2024/05/04/opinion/gaza-child-deaths.html:26,https://www.nytimes.com:443/2024/04/18/nyregion/trump-trial-jury-hush-money.html:33 34,https://en.wikipedia.org:443/wiki/Sports_in_Syria:150 151,https://www.nytimes.com:443/series/opinion-audio:23,https://www.nytimes.com:443/2024/05/04/world/middleeast/cindy-mccain-gaza-famine.html:52,https://www.nytimes.com:443/2024/05/04/nyregion/trump-trial-scandals-testimony.html:52,https://www.businessinsider.com:443/a-timeline-of-trumps-efforts-to-overturn-the-2020-election-2021-10:60 61 62,https://www.nytimes.com:443/interactive/2024/02/01/magazine/israel-founding-palestinian-conflict.html:104,https://en.wikipedia.org:443/wiki/American_Revolution:1421 1422 1423 1424,https://www.azcentral.com:443/story/sports/nfl/cardinals/2015/09/06/nfls-dynasties-decade/71605710/:29,https://en.wikipedia.org:443/wiki/Great_Recession_in_the_United_States:397,https://www.nytimes.com:443/live/2024/05/04/us/college-campus-protests:221 222 223 224 225 226,https://www.tlc.com:443/inside-tlc/TLC-Casting:55 56,https://en.wikipedia.org:443/wiki/Maternal_mortality_in_the_United_States:236,https://www.nytimes.com:443/section/t-magazine:76 77,https://en.wikipedia.org:443/wiki/War_in_Afghanistan_(2001%E2%80%932021):2188,https://en.wikipedia.org:443/wiki/Cold_War:1467 1468,https://www.nytimes.com:443/2024/05/03/arts/television/jimmy-kimmel-donald-trump-trial.html:27,https://en.wikipedia.org:443/wiki/Boston_Red_Sox:589,https://www.nytimes.com:443/2024/05/03/style/modern-love-we-didnt-know-it-was-the-last-time.html:43,https://en.wikipedia.org:443/wiki/United_States_dollar:405 406,https://www.nytimes.com:443/2024/05/04/nyregion/columbia-protests-arrest-agitators-israel.html:109,https://en.wikipedia.org:443/wiki/Supreme_Court_of_the_United_States:1274 1275,https://www.forbes.com:443/sites/greatspeculations/2019/09/22/a-strange-new-world-economic-slowdown-liquidity-issues/:32,https://www.nytimes.com:443/news-event/israel-hamas-gaza:46 47,https://www.nytimes.com:443/2024/04/24/us/palestinian-family-gaza-war-death.html:163 164 165,https://en.wikipedia.org:443/wiki/Olympic_Games:738,https://en.wikipedia.org:443/wiki/United_States_Public_Health_Service_Commissioned_Corps:185,https://en.wikipedia.org:443/wiki/Constitution_of_the_United_States:1163,https://en.wikipedia.org:443/wiki/Speaker_of_the_United_States_House_of_Representatives:286,https://en.wikipedia.org:443/wiki/United_States_Olympic_%26_Paralympic_Committee:251,https://en.wikipedia.org:443/wiki/U.S._state:391 392,https://en.wikipedia.org:443/wiki/U.S._Immigration_and_Customs_Enforcement:490,https://www.theatlantic.com:443/magazine/archive/2023/01/homelessness-affordable-housing-crisis-democrats-causes/672224/:93,https://www.usatoday.com:443/story/sports/mlb/2013/08/11/fox-sports-1-versus-espn/2641247/:56 57,https://en.wikipedia.org:443/wiki/Spanish%E2%80%93American_War:1306 1307,https://www.nytimes.com:443/2024/04/26/us/politics/kristi-noem-dog-killing.html:32,https://www.nytimes.com:443/2024/04/12/fashion/weddings/elena-bauer-joshua-fagel-wedding.html:36,https://www.nytimes.com:443/2024/05/03/world/europe/campus-protests-rorschach-test.html:94,https://en.wikipedia.org:443/wiki/Americans:1339 1340,https://www.nytimes.com:443/2023/11/21/dining/restaurant-review-bangkok-supper-club.html:43,https://en.wikipedia.org:443/wiki/Comparison_of_U.S._state_and_territory_governments:112,https://www.gallup.com:443/394505/indicator-life-evaluation-index.aspx:43,https://www.tlc.com:443/shows/90-day-fiance-happily-ever-after/photo-galleries/90-day-fiance-happily-ever-after-couples-bios-season-8:51,https://en.wikipedia.org:443/wiki/History_of_the_United_States_(1945%E2%80%931964):629,https://www.forbes.com:443/sites/zachslaton/2012/10/15/how-the-mls-playoff-format-punishes-ambitious-teams/:51,https://www.nytimes.com:443/section/arts/television?page=3:42,https://www.nytimes.com:443/2024/04/02/world/middleeast/gaza-al-shifa-hospital.html:63,https://en.wikipedia.org:443/wiki/Literacy_in_the_United_States:431 432,https://www.nytimes.com:443/spotlight/podcasts?page=6:188,https://www.tlc.com:443/:16,https://en.wikipedia.org:443/wiki/Fashion_in_the_United_States:118,https://www.forbes.com:443/sites/carlieporterfield/2022/07/26/heres-why-pickleball-the-fastest-growing-sport-in-america-is-bill-gates-favorite-game/:36,https://www.nytimes.com:443/2024/05/04/world/europe/uk-rishi-sunak-conservatives-elections.html:49 50,https://www.nytimes.com:443/2024/04/24/podcasts/laufey-gen-zs-jazz-icon-sings-for-anxious-generation.html:148 149,https://www.nytimes.com:443/section/health:61,https://www.nytimes.com:443/section/health?page=7:140 141,https://www.nytimes.com:443/2017/06/26/health/undocumented-immigrants-health-care.html:65,https://www.nytimes.com:443/section/well:42,https://www.pbs.org:443/wgbh/americanexperience/features/klansville-faq/:58 59,https://en.wikipedia.org:443/wiki/Prescription_drug_prices_in_the_United_States:350,https://www.foodnetwork.com:443/:20,https://en.wikipedia.org:443/wiki/Terrorism_in_the_United_States:1067,https://www.nytimes.com:443/video/us/100000007348445/breonna-taylor-death-cops.html:64,https://news.gallup.com:443/vault/203270/gallup-vault-football-rise-spectator-sport.aspx:32,https://en.wikipedia.org:443/wiki/Gymnastics_in_the_United_States:141,https://en.wikipedia.org:443/wiki/Iroquois:856 857 858 859,https://en.wikipedia.org:443/wiki/Jack_Nicklaus:418,https://news.gallup.com:443/poll/224864/football-americans-favorite-sport-watch.aspx:60 61 62,https://www.nytimes.com:443/2024/04/14/fashion/vintage-watches-reissued.html:34,https://en.wikipedia.org:443/wiki/Henley_Royal_Regatta:151,https://www.nytimes.com:443/news-event/2024-election:34,https://www.nytimes.com:443/2024/05/04/world/europe/russia-soldiers-women.html:83,https://www.tlc.com:443/weddings/top-trends-for-spring-wedding-2024:33,https://www.nytimes.com:443/live/2024/05/02/us/biden-trump-campaign:178 179 180,https://www.nytimes.com:443/section/nyregion:29 30,https://www.nytimes.com:443/spotlight/podcasts:127,https://www.nytimes.com:443/interactive/2024/02/22/crosswords/puzzle-personality.html:16 17,https://www.nytimes.com:443/2024/05/02/arts/design/petrit-halilaj-kosovo-met-roof.html:84,https://www.nytimes.com:443/video/last-word:81,https://www.themarshallproject.org:443/2022/06/14/what-did-fbi-data-say-about-crime-in-2021-it-s-too-unreliable-to-tell:72,https://en.wikipedia.org:443/wiki/Vietnam_War:1463 1464 1465,https://en.wikipedia.org:443/wiki/Democratic_Party_(United_States):990,https://www.nytimes.com:443/section/science?page=9:165,https://www.nytimes.com:443/section/nyregion?page=4:61 62 63,https://www.theguardian.com:443/sport/2017/aug/19/will-mcgregor-v-mayweather-save-american-boxing-or-bury-it?CMP=share_btn_link:79,https://www.tlc.com:443/parenting/are-men-or-women-more-likely-to-want-kids-study:45 46,https://www.nytimes.com:443/live/2024/05/04/world/israel-gaza-war-hamas:130,https://www.law.cornell.edu:443/supremecourt/text/74/700:328 329 330,https://en.wikipedia.org:443/wiki/NBA:400,https://en.wikipedia.org:443/wiki/New_England:680,https://www.nytimes.com:443/2014/11/11/technology/obama-net-neutrality-fcc.html:61 62 63 64,https://www.cnn.com:443/2020/08/24/politics/muslim-ice-detainees-pork-meals/index.html:55,https://www.nytimes.com:443/2024/04/20/health/seniors-home-equity-mortgages.html:78,https://www.nytimes.com:443/2023/11/29/business/dealbook/kamala-harris-biden-voters.html:43 44 45 46,https://en.wikipedia.org:443/wiki/Articles_of_Confederation:630,https://www.nytimes.com:443/section/books/review?page=7:115,https://cooking.nytimes.com:443/recipes/1024760-chocolate-layer-cake:84 85,https://www.nytimes.com:443/2023/11/21/dining/restaurant-review-bangkok-supper-club.html?rref=collection%2Fcollection%2Frestaurant-guide:43,https://www.nytimes.com:443/news-event/trump-ny-hush-money-case:17,https://www.nytimes.com:443/2023/04/14/us/politics/mike-pompeo-president-2024.html:47,https://www.nytimes.com:443/live/2024/01/19/world/israel-hamas-news/a-un-official-says-israeli-treatment-of-detainees-may-amount-to-torture?smid=url-share:174 175 176,https://en.wikipedia.org:443/wiki/Tribal_sovereignty_in_the_United_States:351,https://www.nytimes.com:443/2024/05/03/arts/design/stanley-stellar-frieze-photography.html:55 56 57,https://en.wikipedia.org:443/wiki/Sergeant_at_Arms_of_the_United_States_Senate:169,https://www.nytimes.com:443/2024/05/04/opinion/alexandria-ocasio-cortez.html:95 96,https://en.wikipedia.org:443/wiki/Powers_of_the_president_of_the_United_States:265,https://www.nytimes.com:443/2024/05/02/us/blast-mortar-brain-injury-military.html:91 92 93 