ball ball-0 7141 https://cooking.nytimes.com:443/christmas:69 70,https://en.wikipedia.org:443/wiki/Sports_in_Georgia_(country):84 85 86,https://en.wikipedia.org:443/wiki/2018_Rugby_World_Cup_Sevens:86,https://www.theguardian.com:443/sport/2004/jul/27/cricket.comment:65 66 67 68 69,https://en.wikipedia.org:443/wiki/Iroquois:1028 1029 1030,https://www.azcentral.com:443/story/sports/nfl/cardinals/2015/09/06/nfls-dynasties-decade/71605710/:35 36,https://en.wikipedia.org:443/wiki/Southern_United_States:1069,https://www.usatoday.com:443/story/sports/mlb/2013/08/11/fox-sports-1-versus-espn/2641247/:71,https://cooking.nytimes.com:443/:270 271,https://en.wikipedia.org:443/wiki/Sports_in_the_United_States:421,https://en.wikipedia.org:443/wiki/Sports_in_El_Salvador:288 290 291,https://en.wikipedia.org:443/wiki/Sports_in_Maryland:347,https://en.wikipedia.org:443/wiki/Culture_of_the_United_States:1174,https://en.wikipedia.org:443/wiki/College_basketball:487 488 489 490 491 492 493 494 495 496 497 498 499 500 501 502 503 504 505 506 507 508 509 510 511 512 513 514 515 516 517 518 519 520 521 522 523 524 525 526 527 528 529 530 531 532 533 534 535 536 537 538 539 540 541,https://en.wikipedia.org:443/wiki/MLS:975 976,https://commons.wikimedia.org:443/wiki/Category:Sports_in_the_United_States:80 81 82,https://www.independent.co.uk:443/sport/us-sport/nba/draft-2020-what-time-start-uk-b1725070.html:42 43 44 45,https://en.wikipedia.org:443/wiki/Olympic_Games:1075 1076 1077 1078 1079 1080 1081 1082 1083 1084 1085 1086 1087,https://www.independent.co.uk:443/tv/travel-smart:79,https://en.wikipedia.org:443/wiki/National_League_(baseball):299 300 301 302 303 304 305 306 307 308,https://en.wikipedia.org:443/wiki/American_League:238 239,https://www.forbes.com:443/sites/carlieporterfield/2022/07/26/heres-why-pickleball-the-fastest-growing-sport-in-america-is-bill-gates-favorite-game/:41,https://www.saturdaydownsouth.com:443/sports/ranking-top-25-rivalries-college-sports-2023/:77 78 79 80 81 82 83,https://en.wikipedia.org:443/wiki/Beach_volleyball:371 372 373 374 375 376 377 378 379 380 381 382 383 384 385 386 387 388 389 390 391 392 393 394 395 396 397 398 399 400 401 402 403 404 405 406 407 408 409 410 411 412 413 414 415 416 417 418 419 420 421 422 423 424 425 426 427 428 429 430 431 432 433 434 435 436 437 438 439 440 441 442 443 444 445 446 447 448 449 450 451 452 453 454 455 456 457 458 459 460 461 462 463 464 465 466 467 468 469 470,https://cooking.nytimes.com:443/recipes/1022283-country-panzanella-with-watermelon-dressing:132,https://en.wikipedia.org:443/wiki/United_States_Backgammon_Federation:68,https://en.wikipedia.org:443/wiki/United_States_Declaration_of_Independence:887,https://en.wikipedia.org:443/wiki/College_athletics_in_the_United_States:597 598,https://en.wikipedia.org:443/wiki/Fox_Sports_1:327,https://en.wikipedia.org:443/wiki/Volleyball:437 438 439 440 441 442 443 444 445 446 447 448 449 450 451 452 453 454 455 456 457 458 459 460 461 462 463 464 465 466 467 468 469 470 471 472 473 474 475 476 477 478 479 480 481 482 483 484 485 486 487 488 489 490 491 492 493 494 495 496 497 498 499 500 501 502 503 504 505 506 507 508 509 510 511 512 513 514 515 516 517 518 519 520 521 522 523 524 525 526 527 528 529 530 531 532 533 534 535 536 537 538 539 540 541 542 543 544 545 546 547 548 549 550 551 552 553 554 555 556 557 558 559 560 561 562 563 564 565 566 567 568 569 570 571 572 573 574 575 576 577 578 579 580 581 582 583 584 585 586 587 588 589 590 591 592 593 594 595 596 597 598 599 600 601 602 603 604 605 606 607 608 609 610 611 612 613 614 615 616 619,https://en.wikipedia.org:443/wiki/Fenway_Park:595 596 597 598 599 600 601 602 603 604 605 606 607 608 609 610 611 612 613 614 615 616 651 652,https://en.wikipedia.org:443/wiki/USA_Baseball:446 447 448 449 450 451 452,https://commons.wikimedia.org:443/wiki/Category:Sports_in_Maryland:39,https://en.wikipedia.org:443/wiki/Sports_in_India:1475 1476 1477 1478 1479 1480 1481 1482 1483 1484 1485 1486 1487 1488 1489 1490 1491 1492 1493 1494 1495 1496 1497 1498 1499 1500 1501 1502 1503 1504 1505 1506 1507 1508 1509 1510 1511 1512 1513 1514,https://en.wikipedia.org:443/wiki/Terrorism_in_the_United_States:1444,https://en.wikipedia.org:443/wiki/Sports_in_Armenia:438 439 440,https://www.cookingchanneltv.com:443/recipes/tia-mowry/spaghetti-and-turkey-meatballs-2803024:49,https://en.wikipedia.org:443/wiki/Soccer_in_the_United_States:793 794 795 796 797,https://en.wikipedia.org:443/wiki/Sports_in_Namibia:93,https://en.wikipedia.org:443/wiki/Colonial_history_of_the_United_States:1089 1090,https://en.wikipedia.org:443/wiki/Sports_in_Finland:173 174 175 176 177 178 179 180 181,https://en.wikipedia.org:443/wiki/USA_Cricket:173,https://en.wikipedia.org:443/wiki/Vietnam_War:1718,https://en.wikipedia.org:443/wiki/National_Reconnaissance_Office:458,https://cooking.nytimes.com:443/recipes/1025421-creole-broiled-shrimp-and-baby-corn:81,https://en.wikipedia.org:443/wiki/Sports_in_Washington:306 307,https://en.wikipedia.org:443/wiki/Ice_hockey:470 471 472 473 474 475 476 477 478 479 480 481 482 483 484 485,https://en.wikipedia.org:443/wiki/Timeline_of_United_States_inventions_(after_1991):237,https://en.wikipedia.org:443/wiki/Association_of_Summer_Olympic_International_Federations:134,https://www.espn.com:443/college-football/boxscore/_/gameId/401520155:30,https://en.wikipedia.org:443/wiki/Major_professional_sports_teams_of_the_United_States_and_Canada:130 131 132,https://en.wikipedia.org:443/wiki/United_States_men%27s_national_soccer_team:711 712 713,https://en.wikipedia.org:443/wiki/Baseball:649 650 651 652 653 654 655 656 657 658 659 660 661 662 663 664 665 666 667 668 669 670 671 672 673 674 675 676 677 678 679 680 681 682 683 684 685 686 687 688 689 690 691 692 693 694 695 696 697 698 699 700 701 702 703 704 705 706 707 708 709 710 711 712 713 714 715 716 717 718 719 720 721 722 723 724 725 726 727 728 729 730 731 732 733 734 735 736 737 738 739 740 741 742 743 744 745 746 747 748 749 750 751 752 753 754 755 756 757 758 759 760 761 762 763 764 775 776 777 778 779 780 781 782 783 784 785 786 787 788,https://en.wikipedia.org:443/wiki/U.S._Squash:71 72 73,https://en.wikipedia.org:443/wiki/Association_of_International_Olympic_Winter_Sports_Federations:59,https://en.wikipedia.org:443/wiki/NBA:585 586 587 588 589 590 591 592 593 594 595 596 597 598,https://en.wikipedia.org:443/wiki/Fashion_in_the_United_States:150,https://en.wikipedia.org:443/wiki/Sports_in_France:156,https://en.wikipedia.org:443/wiki/United_States_at_the_Universiade:43,https://en.wikipedia.org:443/wiki/Boston_Red_Sox:780 781 782 783 784 785 786 787 788 789 790 791 792 793 794 795 796 797 798 799 800 801 815,https://en.wikipedia.org:443/wiki/Major_Arena_Soccer_League:269 270,https://en.wikipedia.org:443/wiki/New_England_Patriots:1003 1004 1005 1006 1007 1008 1009 1012 1013 1014,https://en.wikipedia.org:443/wiki/Indiana:743 744,https://en.wikipedia.org:443/wiki/Jack_Nicklaus:522 523 524 525 526 527 528 529 530,https://cooking.nytimes.com:443/recipes/1019333-millionaires-shortbread:109 110,https://en.wikipedia.org:443/wiki/Sports_in_Papua_New_Guinea:74 