barrier barrier-0 2435 https://en.wikipedia.org:443/wiki/American_Revolution:1665,https://en.wikipedia.org:443/wiki/Terrorism_in_the_United_States:1481 1482 1483 1484,https://www.nytimes.com:443/spotlight/graphics?page=10:228,https://www.tlc.com:443/inside-tlc/TLC-Casting:71,https://www.nytimes.com:443/live/2024/05/04/us/college-campus-protests:259,https://www.nytimes.com:443/interactive/2024/05/03/us/ucla-protests-encampment-violence.html:107,https://en.wikipedia.org:443/wiki/Race_and_maternal_health_in_the_United_States:264 265 266 267,https://en.wikipedia.org:443/wiki/NBA:621,https://www.nytimes.com:443/section/arts/television?page=3:58,https://www.nytimes.com:443/section/health:73,https://en.wikipedia.org:443/wiki/Boston:1212,https://en.wikipedia.org:443/wiki/Sports_in_India:1586,https://en.wikipedia.org:443/wiki/IndyCar_Series:504,https://en.wikipedia.org:443/wiki/Maternal_mortality_in_the_United_States:294,https://en.wikipedia.org:443/wiki/American_exceptionalism:773 774,https://www.nytimes.com:443/section/health?page=7:169,https://www.nytimes.com:443/section/well:53,https://en.wikipedia.org:443/wiki/Constitution_of_the_United_States:1375,https://en.wikipedia.org:443/wiki/Southern_United_States:1108 1109 1110 1111,https://en.wikipedia.org:443/wiki/New_England_Patriots:1051,https://en.wikipedia.org:443/wiki/Democratic_Party_(United_States):1206,https://www.forbes.com:443/sites/greatspeculations/2019/09/22/a-strange-new-world-economic-slowdown-liquidity-issues/:68,http://www.redsoxdiehard.com:80/players/unifnums.html:213 214,https://en.wikipedia.org:443/wiki/Articles_of_Confederation:734 735 736,https://en.wikipedia.org:443/wiki/Cycling_in_the_United_States:98,https://en.wikipedia.org:443/wiki/Baseball:802,https://www.azcentral.com:443/story/sports/nfl/cardinals/2015/09/06/nfls-dynasties-decade/71605710/:37,https://en.wikipedia.org:443/wiki/War_in_Afghanistan_(2001%E2%80%932021):2838,https://en.wikipedia.org:443/wiki/Literacy_in_the_United_States:566,https://en.wikipedia.org:443/wiki/Colonial_history_of_the_United_States:1117 1118,https://en.wikipedia.org:443/wiki/Cold_War:1813,https://en.wikipedia.org:443/wiki/Henley_Royal_Regatta:217 218 219 220 221,https://en.wikipedia.org:443/wiki/Timeline_of_United_States_inventions_(after_1991):241,https://en.wikipedia.org:443/wiki/Immigrant_health_care_in_the_United_States:372 373 374 375 376 377 378 379 380 381 382 383 384 385 386 387 388 389 390 391 392 393 394 395 396 