bart bart-0 326 https://www.nytimes.com:443/2024/04/20/health/seniors-home-equity-mortgages.html:96,https://en.wikipedia.org:443/wiki/Gymnastics_in_the_United_States:179 180,https://www.azcentral.com:443/story/sports/nfl/cardinals/2015/09/06/nfls-dynasties-decade/71605710/:38 39,https://en.wikipedia.org:443/wiki/National_Football_League:673 