beeb beeb-0 234 https://www.azcentral.com:443/story/sports/nfl/cardinals/2015/09/06/nfls-dynasties-decade/71605710/:47,https://en.wikipedia.org:443/wiki/List_of_mountains_of_the_United_States:534,https://en.wikipedia.org:443/wiki/Louise_Suggs:130 131 