bill bill-0 4851 https://en.wikipedia.org:443/wiki/Immigrant_health_care_in_the_United_States:446,https://en.wikipedia.org:443/wiki/National_Football_League:764 765 766 767 768,https://en.wikipedia.org:443/wiki/Articles_of_Confederation:797 798,https://en.wikipedia.org:443/wiki/Cold_War:2047 2048,https://en.wikipedia.org:443/wiki/Ice_hockey:572 573,https://en.wikipedia.org:443/wiki/National_monument_(United_States):191,https://www.nfl.com:443/teams/baltimore-ravens/:72 73,https://www.nfl.com:443/standings/:69 70 71 72,https://www.law.cornell.edu:443/supremecourt/text/74/700:459,https://www.theguardian.com:443/sport/2018/jan/23/aly-raisman-olympic-committee-larry-nassar-abuse-case:64,https://bolavip.com:443/en:59 60,https://en.wikipedia.org:443/wiki/United_States_federal_civil_service:259,http://www.oklegislature.gov:80/osStatuesTitle.aspx:5,https://en.wikipedia.org:443/wiki/Education_in_the_United_States:1053 1054 1055 1056,https://www.theguardian.com:443/sport/nhl:69,https://www.nytimes.com:443/section/business:47,https://en.wikipedia.org:443/wiki/Vietnam_War:1971,https://en.wikipedia.org:443/wiki/2023_Big_Ten_Conference_football_season:463,https://en.wikipedia.org:443/wiki/History_of_the_United_States_debt_ceiling:247,https://www.nytimes.com:443/section/opinion/editorials:20,https://en.wikipedia.org:443/wiki/Maternal_mortality_in_the_United_States:318,https://en.wikipedia.org:443/wiki/College_athletics_in_the_United_States:707,https://en.wikipedia.org:443/wiki/List_of_mountains_of_the_United_States:603,https://www.azcentral.com:443/story/sports/nfl/cardinals/2015/09/06/nfls-dynasties-decade/71605710/:50,https://en.wikipedia.org:443/wiki/History_of_the_United_States_(1849%E2%80%931865):543,https://en.wikipedia.org:443/wiki/Indiana:898,https://en.wikipedia.org:443/wiki/U.S._Immigration_and_Customs_Enforcement:623,https://www.nytimes.com:443/subscription/home-delivery:7,https://en.wikipedia.org:443/wiki/U.S._state:493 494,https://en.wikipedia.org:443/wiki/Consolidated_city-county:271,https://www.nytimes.com:443/section/opinion/letters:18,https://www.nfl.com:443/standings/conference/2023/REG:66 67 68 69,https://en.wikipedia.org:443/wiki/Municipal_council:204,https://en.wikipedia.org:443/wiki/United_States_Attorney:395,https://en.wikipedia.org:443/wiki/American_exceptionalism:840,https://en.wikipedia.org:443/wiki/Major_professional_sports_teams_of_the_United_States_and_Canada:171,https://en.wikipedia.org:443/wiki/Sergeant_at_Arms_of_the_United_States_Senate:195,https://en.wikipedia.org:443/wiki/Associate_Justice_of_the_Supreme_Court_of_the_United_States:312,https://en.wikipedia.org:443/wiki/Iroquois:1294,https://en.wikipedia.org:443/wiki/United_States_Declaration_of_Independence:1012,https://en.wikipedia.org:443/wiki/Colonial_history_of_the_United_States:1253,https://www.nytimes.com:443/spotlight/graphics?page=10:269 270,https://en.wikipedia.org:443/wiki/Fenway_Park:895 896 897,https://en.wikipedia.org:443/wiki/List_of_current_United_States_district_judges:912,https://www.theguardian.com:443/sport/2017/aug/19/will-mcgregor-v-mayweather-save-american-boxing-or-bury-it?CMP=share_btn_link:136,https://en.wikipedia.org:443/wiki/Sports_in_Kentucky:414,https://en.wikipedia.org:443/wiki/Agriculture_in_the_United_States:621 622,https://archive.curbed.com:443/2020/1/13/21026108/public-housing-faircloth-amendment-election-2020:78,https://en.wikipedia.org:443/wiki/Constitution_of_the_United_States:1492,https://en.wikipedia.org:443/wiki/Speaker_of_the_United_States_House_of_Representatives:377 378 379 380 381 382 383 384 385,https://www.sportsbusinessjournal.com:443/Subscribe/Subscription-Landing.aspx:142 143 144,https://www.sportsbusinessjournal.com:443/Daily/Issues/2024/04/29.aspx:114,https://en.wikipedia.org:443/wiki/Democratic_Party_(United_States):1352 1353,https://en.wikipedia.org:443/wiki/United_States_dollar:669 670 671 672 673 674 675 676 677 678 679,https://www.nytimes.com:443/2024/05/04/opinion/alexandria-ocasio-cortez.html:136,https://www.nfl.com:443/teams/indianapolis-colts/:64 65,https://www.nytimes.com:443/2024/05/03/opinion/nuclear-power-energy.html:71,https://www.nfl.com:443/teams/philadelphia-eagles/:59 60,https://www.sbnation.com:443/2014/10/5/6916597/nba-new-tv-deal-espn-turner-24-billion:65,https://www.usatoday.com:443/story/sports/mlb/2013/08/11/fox-sports-1-versus-espn/2641247/:99,https://en.wikipedia.org:443/wiki/New_England_Patriots:1232 1233 1234 1235 1236 1237 1238 1239 1240 1241 1242 1243 1244 1245 1246 1247 1248 1249 1250 1251 1252 1253 1254 1255 1256 1257 1258 1259,https://www.theguardian.com:443/type/video+tone/comment:36,https://en.wikipedia.org:443/wiki/Powers_of_the_president_of_the_United_States:341,https://www.nytimes.com:443/section/nyregion?page=4:94,https://www.nytimes.com:443/section/health?page=7:197,https://www.nfl.com:443/teams/seattle-seahawks/:61 62 