blount blount-0 733 https://en.wikipedia.org:443/wiki/Associate_Justice_of_the_Supreme_Court_of_the_United_States:329,https://en.wikipedia.org:443/wiki/Constitution_of_the_United_States:1519 1520,https://en.wikipedia.org:443/wiki/New_England_Patriots:1315,https://en.wikipedia.org:443/wiki/Perpetual_Union:349,https://en.wikipedia.org:443/wiki/Articles_of_Confederation:823,https://cooking.nytimes.com:443/christmas:100 101 102,https://en.wikipedia.org:443/wiki/United_States_Declaration_of_Independence:1040,https://www.azcentral.com:443/story/sports/nfl/cardinals/2015/09/06/nfls-dynasties-decade/71605710/:52,https://en.wikipedia.org:443/wiki/American_Revolution:1925,https://en.wikipedia.org:443/wiki/Sergeant_at_Arms_of_the_United_States_Senate:199 