bob bob-0 4655 https://en.wikipedia.org:443/wiki/Cold_War:2178,https://www.patriots.com:443/news/ben-coates-elected-to-patriots-hall-of-fame-140866:107,https://en.wikipedia.org:443/wiki/War_in_Afghanistan_(2001%E2%80%932021):3266,https://en.wikipedia.org:443/wiki/Baseball:1722 1723 1724 1725 1726,https://en.wikipedia.org:443/wiki/Cycling_in_the_United_States:159,https://en.wikipedia.org:443/wiki/Louise_Suggs:189 190,https://en.wikipedia.org:443/wiki/U.S._Immigration_and_Customs_Enforcement:637,https://en.wikipedia.org:443/wiki/Democratic_Party_(United_States):1425 1426,https://www.nytimes.com:443/by/pamela-paul:29,https://en.wikipedia.org:443/wiki/Professional_boxer:169 170 171,https://www.nytimes.com:443/live/2024/05/02/us/biden-trump-campaign:321,https://en.wikipedia.org:443/wiki/Sports_in_Venezuela:240,https://www.nytimes.com:443/article/senate-races-2024-election.html:105,http://www.redsoxdiehard.com:80/players/unifnums.html:329 330 331 332 333 334 335 336 337 338 339 340 341 342 343 344 345 346 347 348 349 350 351 352 353 354 355 356 357 358 359 360 361 362 363 364 365 366 367 368 369 370 371 372 373 374 375 376 377 378 379 380 381,https://en.wikipedia.org:443/wiki/National_League_(baseball):432,https://en.wikipedia.org:443/wiki/National_Boxing_Association:314 315,https://en.wikipedia.org:443/wiki/Major_professional_sports_teams_of_the_United_States_and_Canada:181,https://en.wikipedia.org:443/wiki/Constitution_of_the_United_States:1527,https://en.wikipedia.org:443/wiki/Southern_United_States:1378,https://en.wikipedia.org:443/wiki/Carlos_Bocanegra:244,https://en.wikipedia.org:443/wiki/The_Washington_Post:741 742 743 744 745,https://en.wikipedia.org:443/wiki/Francis_Olympic_Field:216,https://en.wikipedia.org:443/wiki/Cable_television:328,https://en.wikipedia.org:443/wiki/USA_Baseball:939 940 941,https://www.azcentral.com:443/story/sports/nfl/cardinals/2015/09/06/nfls-dynasties-decade/71605710/:53,https://www.saturdaydownsouth.com:443/sports/ranking-top-25-rivalries-college-sports-2023/:186,https://en.wikipedia.org:443/wiki/Culture_of_the_United_States:1355 1356,https://en.wikipedia.org:443/wiki/Fox_Sports_1:437 438 439,https://en.wikipedia.org:443/wiki/Horse_racing_in_the_United_States:171,https://en.wikipedia.org:443/wiki/United_States_men%27s_national_soccer_team:905 906 907,https://en.wikipedia.org:443/wiki/Jack_Nicklaus:757 758 759 760 761 762 763 764 765 766 767 768 769 770 771 772 773 774 775 776,https://en.wikipedia.org:443/wiki/National_Football_League:792,https://www.almanac.com:443/fact/how-much-is-two-bits-and-where:28,https://www.nytimes.com:443/spotlight/podcasts:200,https://en.wikipedia.org:443/wiki/New_England_Patriots:1360 1361 1362 1363 1364 1365 1366 1367 1368 1369 1370 1371,https://en.wikipedia.org:443/wiki/Sports_in_India:1918,https://cooking.nytimes.com:443/recipes/1018626-eggs-benedict:208,https://en.wikipedia.org:443/wiki/Summer_Olympic_Games:646,https://en.wikipedia.org:443/wiki/History_of_the_United_States_(1945%E2%80%931964):950 951,https://en.wikipedia.org:443/wiki/Americans:1605,https://en.wikipedia.org:443/wiki/NBA:841,https://en.wikipedia.org:443/wiki/MLB_Network:439 440 441 442 443 444 445,https://www.nytimes.com:443/2022/02/11/sports/horse-racing/medina-spirit-kentucky-derby-necropsy.html?searchResultPosition=2:75 76,https://en.wikipedia.org:443/wiki/Greenhouse_gas_emissions_by_the_United_States:392,https://www.pbs.org:443/wgbh/americanexperience/features/klansville-faq/:87 88 89 90,https://www.wired.com:443/2016/08/olympic-cities-everywhere/:95,https://en.wikipedia.org:443/wiki/Speaker_of_the_United_States_House_of_Representatives:410,https://en.wikipedia.org:443/wiki/Supreme_Court_of_the_United_States:1719 1720,https://en.wikipedia.org:443/wiki/Vietnam_War:2079 2080 2081 2082,https://www.nytimes.com:443/spotlight/podcasts?page=6:306,https://en.wikipedia.org:443/wiki/American_Revolution:1931,https://en.wikipedia.org:443/wiki/Terrorism_in_the_United_States:1654,https://en.wikipedia.org:443/wiki/Boston_Red_Sox:1162 1163 1164 1165 1166 1167 1168 1169 1170 1171 1172 1173 1174,https://www.patriots.com:443/news/check-out-the-2016-patriots-color-rush-jerseys-270621:98,https://www.nytimes.com:443/2024/05/03/opinion/nuclear-power-energy.html:73,https://en.wikipedia.org:443/wiki/Olympic_Games:1384 1385 1386,https://www.theguardian.com:443/sport/2017/aug/19/will-mcgregor-v-mayweather-save-american-boxing-or-bury-it?CMP=share_btn_link:142,https://www.nytimes.com:443/2024/05/02/business/horse-racing-deaths-kentucky-derby.html:124 125 126,https://en.wikipedia.org:443/wiki/Fenway_Park:944 945 946,https://en.wikipedia.org:443/wiki/Portal:Current_events:299 300 301 