bobbi bobbi-0 1782 https://en.wikipedia.org:443/wiki/Great_Recession_in_the_United_States:700,https://en.wikipedia.org:443/wiki/National_Football_League:793,https://en.wikipedia.org:443/wiki/Bureau_of_Diplomatic_Security:523,https://en.wikipedia.org:443/wiki/Sports_in_India:1919,https://en.wikipedia.org:443/wiki/Fox_Sports_1:440,https://en.wikipedia.org:443/wiki/New_England:950,https://en.wikipedia.org:443/wiki/History_of_the_United_States_(2008%E2%80%93present):1382,https://en.wikipedia.org:443/wiki/Carlos_Bocanegra:245,https://en.wikipedia.org:443/wiki/War_in_Afghanistan_(2001%E2%80%932021):3267,https://en.wikipedia.org:443/wiki/College_athletics_in_the_United_States:715,https://www.azcentral.com:443/story/sports/nfl/cardinals/2015/09/06/nfls-dynasties-decade/71605710/:54 55,https://en.wikipedia.org:443/wiki/Tribal_sovereignty_in_the_United_States:466,http://www.redsoxdiehard.com:80/players/unifnums.html:382 383 384 385 386 387 388 389 390 391 392 393 394 395 396 397 398,https://en.wikipedia.org:443/wiki/USA_Baseball:942,https://en.wikipedia.org:443/wiki/Sports_in_Kentucky:456,https://en.wikipedia.org:443/wiki/Boston:1432,https://en.wikipedia.org:443/wiki/MLS:1137 1138 1139 1140,https://www.saturdaydownsouth.com:443/sports/ranking-top-25-rivalries-college-sports-2023/:187,https://en.wikipedia.org:443/wiki/Jack_Nicklaus:777 778 779 780 781 782 783 784 785 786 787 788 789 790 791 792 793 794 795 796 797 798 799 800 801 802 803 804 805 806 807 808,https://www.foodnetwork.com:443/:67,https://en.wikipedia.org:443/wiki/Boston_Red_Sox:1175 1176 1177 1178 1179 1180 1181 1182 1183 1184 1185 1186,https://commons.wikimedia.org:443/wiki/Category:Sports_in_Maryland:52,https://en.wikipedia.org:443/wiki/American_League:348 349,https://en.wikipedia.org:443/wiki/Fenway_Park:947 948 949 