bounc bounc-0 908 https://www.nytimes.com:443/section/well:75 76,https://www.nytimes.com:443/spotlight/podcasts?page=6:328,https://www.fmfstateofmind.com:443/:85 86,https://www.nytimes.com:443/2024/05/03/climate/nasa-satellites-data.html:111,https://en.wikipedia.org:443/wiki/Carlos_Bocanegra:377,https://en.wikipedia.org:443/wiki/Volleyball:782 783 784,https://en.wikipedia.org:443/wiki/Sports_in_India:2014 2015,https://www.azcentral.com:443/story/sports/nfl/cardinals/2015/09/06/nfls-dynasties-decade/71605710/:56,https://www.nytimes.com:443/2024/04/29/realestate/renters-astoria-queens.html:100,https://en.wikipedia.org:443/wiki/Baseball:1763,https://www.nytimes.com:443/section/fashion?page=9:216,https://www.saturdaydownsouth.com:443/sports/ranking-top-25-rivalries-college-sports-2023/:199,https://en.wikipedia.org:443/wiki/Ice_hockey:685,https://en.wikipedia.org:443/wiki/Fenway_Park:1256 1257 1258 1259 1260 1261 1262 