bradshaw bradshaw-0 154 https://en.wikipedia.org:443/wiki/Jack_Nicklaus:855,https://www.azcentral.com:443/story/sports/nfl/cardinals/2015/09/06/nfls-dynasties-decade/71605710/:70 