bradi bradi-0 1799 https://en.wikipedia.org:443/wiki/The_Washington_Post:776,https://en.wikipedia.org:443/wiki/List_of_mountains_of_the_United_States:739,https://www.patriots.com:443/news/ben-coates-elected-to-patriots-hall-of-fame-140866:122 123 124 125 126 127 128 129 130 131 132,https://en.wikipedia.org:443/wiki/Fenway_Park:1320 1321 1322 1323 1324,https://en.wikipedia.org:443/wiki/New_England_Patriots:1647 1648 1649 1650 1651 1652 1653 1654 1655 1656 1657 1658 1659 1660 1661 1662 1663 1664 1665 1666 1667 1668 1669 1670 1671 1672 1673 1674 1675 1676 1677 1678 1679 1680 1681 1682 1683 1684 1685 1686 1687 1688 1689 1690 1691 1692 1693 1694 1695 1696 1697 1698 1699 1700 1701 1702 1703 1704 1705 1706 1707 1708 1709 1710 1711 1712 1713 1714 1715 1716 1717 1718 1719 1720 1721 1722 1723 1724 1725 1726 1727 1728 1729,https://en.wikipedia.org:443/wiki/2023_Big_Ten_Conference_football_season:532,https://en.wikipedia.org:443/wiki/Democratic_Party_(United_States):1452 1453,https://en.wikipedia.org:443/wiki/Jack_Nicklaus:856 857,https://www.patriots.com:443/news/check-out-the-2016-patriots-color-rush-jerseys-270621:111 112 113 114 115 116 117 118,https://en.wikipedia.org:443/wiki/List_of_current_United_States_district_judges:1092 1093,https://en.wikipedia.org:443/wiki/USA_Water_Ski_%26_Wake_Sports:43,https://en.wikipedia.org:443/wiki/Inter_Miami:884,https://www.azcentral.com:443/story/sports/nfl/cardinals/2015/09/06/nfls-dynasties-decade/71605710/:71 72,https://www.nytimes.com:443/books/best-sellers/mass-market-monthly/:172,https://en.wikipedia.org:443/wiki/USA_Baseball:963,https://www.patriots.com:443/team/players-roster/:88 89,https://en.wikipedia.org:443/wiki/National_Football_League:867,https://en.wikipedia.org:443/wiki/New_England:1130,http://www.redsoxdiehard.com:80/players/unifnums.html:446 