buffalo buffalo-0 3432 https://en.wikipedia.org:443/wiki/United_States_at_the_Universiade:70,https://en.wikipedia.org:443/wiki/Vietnam_War:2311,https://en.wikipedia.org:443/wiki/Terrorism_in_the_United_States:2013 2014 2015 2016 2017 2018,https://en.wikipedia.org:443/wiki/List_of_mountain_peaks_of_the_United_States:631 632 633 634 635 636 637,https://www.foodnetwork.com:443/:84,https://en.wikipedia.org:443/wiki/Spanish%E2%80%93American_War:2006 2007 2008 2009,https://en.wikipedia.org:443/wiki/Boston:2389 2390,https://en.wikipedia.org:443/wiki/Supreme_Court_of_the_United_States:1935,https://en.wikipedia.org:443/wiki/2023_Big_Ten_Conference_football_season:630 631,https://en.wikipedia.org:443/wiki/Spectrum_Sports:97 98 99 100,https://en.wikipedia.org:443/wiki/Southern_United_States:1489,https://en.wikipedia.org:443/wiki/List_of_current_United_States_district_judges:1209 1210 1211 1212,https://www.nfl.com:443/teams/indianapolis-colts/:86 87,https://en.wikipedia.org:443/wiki/Fenway_Park:1460 1461 1462 1463 1464 1465 1466,https://www.azcentral.com:443/story/sports/nfl/cardinals/2015/09/06/nfls-dynasties-decade/71605710/:82,https://en.wikipedia.org:443/wiki/Iroquois:1606 1607 1608,https://en.wikipedia.org:443/wiki/United_States_dollar:801 802,https://en.wikipedia.org:443/wiki/National_monument_(United_States):208,https://en.wikipedia.org:443/wiki/Major_professional_sports_teams_of_the_United_States_and_Canada:217 218 219 220,https://www.sbnation.com:443/2014/10/5/6916597/nba-new-tv-deal-espn-turner-24-billion:93,https://en.wikipedia.org:443/wiki/Northern_United_States:71,https://en.wikipedia.org:443/wiki/Ice_hockey:730,https://en.wikipedia.org:443/wiki/New_England_Patriots:1882 1883 1884 1885 1886 1887 1888 1889 1890 1891 1892 1893 1894 1895 1896 1897 1898,https://en.wikipedia.org:443/wiki/Sports_in_Washington:516,https://www.nfl.com:443/teams/seattle-seahawks/:80 81,https://en.wikipedia.org:443/wiki/American_Sign_Language:986 987,https://www.nytimes.com:443/2024/05/04/business/energy-environment/tesla-electric-vehicles-supercharger.html:100,https://en.wikipedia.org:443/wiki/Consolidated_city-county:358 359,https://en.wikipedia.org:443/wiki/Arkansas_River:366,https://en.wikipedia.org:443/wiki/History_of_the_United_States_(2008%E2%80%93present):1499,https://en.wikipedia.org:443/wiki/Architecture_of_the_United_States:787 788,https://www.nfl.com:443/standings/conference/2023/REG:95 96 97,https://www.espn.com:443/college-football/boxscore/_/gameId/401520155:47,https://en.wikipedia.org:443/wiki/National_Football_League:937 938 939 940 941,https://www.nfl.com:443/standings/:98 99 100,https://en.wikipedia.org:443/wiki/Boston_Red_Sox:1672 1673,https://www.nfl.com:443/teams/baltimore-ravens/:96 97,https://en.wikipedia.org:443/wiki/Sports_in_India:2254 2255 2256 2257 2258 2259 2260 2261 2262 2263 2264,https://en.wikipedia.org:443/wiki/Indiana:1078,https://en.wikipedia.org:443/wiki/Tribal_sovereignty_in_the_United_States:495 496,https://www.patriots.com:443/news/ben-coates-elected-to-patriots-hall-of-fame-140866:156 157,https://en.wikipedia.org:443/wiki/Red_River_of_the_South:292,https://www.nfl.com:443/teams/philadelphia-eagles/:84 85,https://en.wikipedia.org:443/wiki/Agriculture_in_the_United_States:683,https://en.wikipedia.org:443/wiki/National_League_(baseball):516 517,https://en.wikipedia.org:443/wiki/NBA:952 953,https://en.wikipedia.org:443/wiki/List_of_mountains_of_the_United_States:785 786 787 788 789 