bulldog bulldog-0 1176 https://en.wikipedia.org:443/wiki/Indiana:1090,https://en.wikipedia.org:443/wiki/Sports_in_Maryland:772 773,https://en.wikipedia.org:443/wiki/Boston_Red_Sox:1676 1677,https://en.wikipedia.org:443/wiki/Fenway_Park:1479 1480 1481 1482 1483 1484 1485 1486 1487 1488 1489 1490,https://en.wikipedia.org:443/wiki/Sports_in_South_Carolina:189 190 191 192 193 194 195,https://en.wikipedia.org:443/wiki/War_in_Afghanistan_(2001%E2%80%932021):3585,https://en.wikipedia.org:443/wiki/Iroquois:1630,https://www.azcentral.com:443/story/sports/nfl/cardinals/2015/09/06/nfls-dynasties-decade/71605710/:84,https://en.wikipedia.org:443/wiki/Sports_in_Washington:521,https://en.wikipedia.org:443/wiki/Southern_United_States:1503 1504,https://en.wikipedia.org:443/wiki/Sports_in_Samoa:201 202,https://www.saturdaydownsouth.com:443/sports/ranking-top-25-rivalries-college-sports-2023/:231 232 233 234 235 236,https://en.wikipedia.org:443/wiki/Sports_in_Kentucky:521 522 523 524 525 526 527,https://en.wikipedia.org:443/wiki/National_Football_League:943,https://commons.wikimedia.org:443/wiki/Category:Sports_in_the_United_States:112,https://en.wikipedia.org:443/wiki/New_England_Patriots:1902 1903 