butler butler-0 1971 https://en.wikipedia.org:443/wiki/List_of_mountains_of_the_United_States:816,https://en.wikipedia.org:443/wiki/American_exceptionalism:940,https://en.wikipedia.org:443/wiki/American_Revolution:2411,https://en.wikipedia.org:443/wiki/Democratic_Party_(United_States):1600 1601 1602,https://en.wikipedia.org:443/wiki/Iroquois:1655 1656 1657,https://en.wikipedia.org:443/wiki/Culture_of_the_United_States:1491,https://en.wikipedia.org:443/wiki/Perpetual_Union:385,https://www.nytimes.com:443/2023/09/07/climate/climate-forward-event.html:76,https://en.wikipedia.org:443/wiki/Sports_in_Kentucky:536,https://www.tlc.com:443/:37 38 39,https://www.azcentral.com:443/story/sports/nfl/cardinals/2015/09/06/nfls-dynasties-decade/71605710/:87,https://en.wikipedia.org:443/wiki/Fenway_Park:1507,https://en.wikipedia.org:443/wiki/College_basketball:839,https://en.wikipedia.org:443/wiki/Supreme_Court_of_the_United_States:2023 2024 2025,https://en.wikipedia.org:443/wiki/Associate_Justice_of_the_Supreme_Court_of_the_United_States:389 390 391,https://en.wikipedia.org:443/wiki/List_of_current_United_States_district_judges:1505,https://en.wikipedia.org:443/wiki/Arkansas_River:370 371,https://en.wikipedia.org:443/wiki/Indiana:1148 1149 1150 1151,http://www.redsoxdiehard.com:80/players/unifnums.html:590 591,https://en.wikipedia.org:443/wiki/Spanish%E2%80%93American_War:2050 2051 2052,https://en.wikipedia.org:443/wiki/Sports_in_Washington:533,https://en.wikipedia.org:443/wiki/New_England_Patriots:1927 1928 1929 1930 1931 1932,https://en.wikipedia.org:443/wiki/American_Sign_Language:1001,https://en.wikipedia.org:443/wiki/Colonial_history_of_the_United_States:1628 1629 1630,https://en.wikipedia.org:443/wiki/2023_Big_Ten_Conference_football_season:646,https://en.wikipedia.org:443/wiki/United_States_Declaration_of_Independence:1258,https://en.wikipedia.org:443/wiki/Constitution_of_the_United_States:1672 1673 1674,https://en.wikipedia.org:443/wiki/Articles_of_Confederation:909 