car car-0 6457 https://en.wikipedia.org:443/wiki/Southern_United_States:1631 1632 1728,https://en.wikipedia.org:443/wiki/Timeline_of_United_States_inventions_(after_1991):341 342 343 344,https://en.wikipedia.org:443/wiki/Culture_of_the_United_States:1561 1562 1563 1564 1565 1566 1567 1568 1569 1570 1571 1599 1600 1601 1602 1603 1604 1605,https://www.nytimes.com:443/section/style:77,https://www.patriots.com:443/news/check-out-the-2016-patriots-color-rush-jerseys-270621:145 146,https://www.usatoday.com:443/for-subscribers/:35,https://en.wikipedia.org:443/wiki/Sports_in_Poland:316,https://www.nytimes.com:443/2024/05/03/style/modern-love-we-didnt-know-it-was-the-last-time.html:108 109,https://www.usatoday.com:443/news/nation/:41,https://www.nytimes.com:443/section/world:159,https://en.wikipedia.org:443/wiki/Sports_in_Yemen:178 179,https://en.wikipedia.org:443/wiki/Sports_in_France:260 261 262 263 264 265,https://www.indycar.com:443/news/2022/02/02-22-internationaltv:74 77,https://www.telegraph.co.uk:443/news/worldnews/asia/afghanistan/8693247/Secret-peace-talks-between-US-and-Taliban-collapse-over-leaks.html:71,https://en.wikipedia.org:443/wiki/Boston:2618 2619 2620 2648,https://www.nytimes.com:443/2024/04/24/us/palestinian-family-gaza-war-death.html:294 295 296 297 298,https://en.wikipedia.org:443/wiki/Federal_law_enforcement_in_the_United_States:384,https://en.wikipedia.org:443/wiki/Terrorism_in_the_United_States:2182 2183 2184 2185 2186 2187 2188 2189 2190 2191 2192 2193 2194 2195 2196 2197 2198 2199 2200 2201 2202 2203 2204 2205 2237 2238,https://www.independent.co.uk:443/tv/travel-smart:158,https://www.independent.co.uk:443/extras/indybest/house-garden:128 131,https://en.wikipedia.org:443/wiki/Sports_in_South_Carolina:292,https://www.nytimes.com:443/2024/04/29/realestate/renters-astoria-queens.html:123 124,https://en.wikipedia.org:443/wiki/Constitution_of_the_United_States:1721,https://www.wired.com:443/2016/08/olympic-cities-everywhere/:126 127 128,https://www.nytimes.com:443/section/nyregion?page=4:161,https://www.tlc.com:443/inside-tlc/TLC-Casting:121,https://www.nytimes.com:443/2023/09/07/climate/climate-forward-event.html:82,https://en.wikipedia.org:443/wiki/Sports_in_India:2373 2384 2385,https://www.azcentral.com:443/story/sports/nfl/cardinals/2015/09/06/nfls-dynasties-decade/71605710/:92,https://www.nytimes.com:443/section/nyregion:73,https://en.wikipedia.org:443/wiki/Sports_in_Estonia:198 199 200,https://en.wikipedia.org:443/wiki/Outline_of_the_history_of_the_United_States:695,https://www.nytimes.com:443/live/2024/05/02/us/biden-trump-campaign:437,https://en.wikipedia.org:443/wiki/Boston_Red_Sox:1760,https://www.espn.com:443/college-football/boxscore/_/gameId/401520383:39 40,https://www.nytimes.com:443/2024/04/02/world/middleeast/gaza-al-shifa-hospital.html:139,https://en.wikipedia.org:443/wiki/History_of_the_United_States_(2008%E2%80%93present):1627 1628 1629 1630 1631 1664 1665 1666,https://en.wikipedia.org:443/wiki/Olympic_Games:1707,https://en.wikipedia.org:443/wiki/Snowboarding:555 556 557 558 559 560,https://en.wikipedia.org:443/wiki/Cycling_in_the_United_States:196 197,https://en.wikipedia.org:443/wiki/Sports_in_Cuba:204,https://en.wikipedia.org:443/wiki/2018_Rugby_World_Cup_Sevens:133,https://en.wikipedia.org:443/wiki/New_England:1351,https://en.wikipedia.org:443/wiki/International_rankings_of_the_United_States:176,https://www.nytimes.com:443/2024/05/04/business/energy-environment/tesla-electric-vehicles-supercharger.html:132 133 134 135 136 139 140 141 142 143 144,https://www.nytimes.com:443/2024/05/01/magazine/catholic-cousin-annulment-ethics.html:72 75,https://www.nytimes.com:443/wirecutter/:483 484 485 486 487 488 489 490 491 492 493 494 495 496 497 498 499 500 521 522,https://www.nytimes.com:443/2024/05/02/opinion/israel-saudi-arabia.html:155,https://en.wikipedia.org:443/wiki/Forbes:299,https://en.wikipedia.org:443/wiki/New_England_Patriots:1998,https://www.businessinsider.com:443/personal-finance/mortgages:80 81,https://www.espn.com:443/college-football/boxscore/_/gameId/401520265:45 46,https://www.nytimes.com:443/2024/04/20/health/seniors-home-equity-mortgages.html:134 135,https://www.businessinsider.com:443/s:87,https://www.nytimes.com:443/section/fashion?page=9:315,https://en.wikipedia.org:443/wiki/Portal:Current_events:385,https://en.wikipedia.org:443/wiki/Architecture_of_the_United_States:977,https://www.espn.com:443/college-football/boxscore/_/gameId/401520417:53 54,https://www.nytimes.com:443/2024/05/04/world/europe/sadiq-khan-london-mayor-results.html:98 99,https://www.espn.com:443/college-football/boxscore/_/gameId/401520155:50 51,https://www.nytimes.com:443/2024/05/02/us/blast-mortar-brain-injury-military.html:195,https://en.wikipedia.org:443/wiki/War_in_Afghanistan_(2001%E2%80%932021):3790 3791,https://www.nytimes.com:443/2024/04/12/fashion/weddings/elena-bauer-joshua-fagel-wedding.html:118,https://en.wikipedia.org:443/wiki/Sergeant_at_Arms_of_the_United_States_Senate:281,https://www.espn.com:443/college-football/boxscore/_/gameId/401520200:41 42,https://en.wikipedia.org:443/wiki/History_of_the_United_States_(1945%E2%80%931964):1168 1169 1170 1171 1185 1186 1187 1188 1189 1190 1191,https://www.nytimes.com:443/section/science?page=9:330,https://www.espn.com:443/college-football/boxscore/_/gameId/401520324:52 53,https://en.wikipedia.org:443/wiki/Sports_in_Georgia_(country):141,https://www.businessinsider.com:443/real-estate:195 196,https://www.nytimes.com:443/2017/06/26/health/undocumented-immigrants-health-care.html:161,https://wtop.com:443/virginia/2020/01/virginia-becomes-38th-state-to-ratify-equal-rights-amendment-but-it-may-be-too-late/:86,https://en.wikipedia.org:443/wiki/Vietnam_War:2636,https://www.nytimes.com:443/by/liam-stack:43,https://www.nytimes.com:443/interactive/2024/03/28/travel/things-to-do-mumbai.html:200 201,https://en.wikipedia.org:443/wiki/IndyCar_Series:761 762 763 764 765 766 767 768 769 770 771 772 773 774 775 776 777 778 779 780 781 782 783 784 785 786 787 788 789 790 791 792 793 794 795 796 797 798 799 800 801 802 803 804 805 806 807 808 809 825 826 827 828 829 830 831 832 833 834 835 836 837 838 839 840 841 842 843 844 845 846 847 848 849 850 851 852 853 854 855 856 857 858 859 860 861 862 863 864 865 866 867 868 869 870 871 872,https://en.wikipedia.org:443/wiki/Greenhouse_gas_emissions_by_the_United_States:578 579 580 581 582 583,https://en.wikipedia.org:443/wiki/Sports_in_Venezuela:352 353 