cardin cardin-0 2904 https://www.patriots.com:443/news/check-out-the-2016-patriots-color-rush-jerseys-270621:147,https://commons.wikimedia.org:443/wiki/Category:Sports_in_the_United_States:118 119,https://en.wikipedia.org:443/wiki/USA_Baseball:1061,https://en.wikipedia.org:443/wiki/Boston_Red_Sox:1779 1780 1781 1782 1783 1784 1785 1786 1787 1788 1789 1790,https://www.nfl.com:443/teams/baltimore-ravens/:104 105,https://en.wikipedia.org:443/wiki/Inter_Miami:1016 1017 1018,https://en.wikipedia.org:443/wiki/Sports_teams_in_Virginia:139,https://en.wikipedia.org:443/wiki/Sports_in_American_Samoa:206,https://en.wikipedia.org:443/wiki/Education_in_the_United_States:1264,https://en.wikipedia.org:443/wiki/Southern_United_States:1633 1634,https://en.wikipedia.org:443/wiki/2023_Big_Ten_Conference_football_season:693 694 695 696 697 698 699,https://www.sbnation.com:443/2014/10/5/6916597/nba-new-tv-deal-espn-turner-24-billion:102 103,https://www.businessinsider.com:443/personal-finance/mortgages:86,https://www.nfl.com:443/teams/indianapolis-colts/:93 94,https://en.wikipedia.org:443/wiki/MLB_Network:625,https://en.wikipedia.org:443/wiki/American_League:411,https://www.nfl.com:443/standings/:106 107 108 109,https://en.wikipedia.org:443/wiki/List_of_mountains_of_the_United_States:969 970,https://en.wikipedia.org:443/wiki/Sports_in_Kentucky:568 569 570 571 572 573 574 575 576 577 578 579 580 581 582 583 584 585 586 587,https://en.wikipedia.org:443/wiki/College_basketball:881,https://en.wikipedia.org:443/wiki/New_England_Patriots:2017 2018 2019,https://en.wikipedia.org:443/wiki/Baseball:1939,https://en.wikipedia.org:443/wiki/National_League_(baseball):553 554 555 556 557 558 559 560,https://www.usatoday.com:443/story/sports/mlb/2016/11/03/world-series-tv-television-ratings-chicago-cubs-cleveland-indians/93231896/:26,https://en.wikipedia.org:443/wiki/Sports_in_Washington:630,https://en.wikipedia.org:443/wiki/National_Football_League:1021 1022 1023 1024 1025 1026 1027,https://www.nfl.com:443/teams/philadelphia-eagles/:91 92,https://www.azcentral.com:443/story/sports/nfl/cardinals/2015/09/06/nfls-dynasties-decade/71605710/:90,https://en.wikipedia.org:443/wiki/Indiana:1219 1220 1221 1226,https://en.wikipedia.org:443/wiki/Gymnastics_in_the_United_States:293,https://en.wikipedia.org:443/wiki/Fenway_Park:1582 1583 1584 1585 1586 1587 1588 1589 1590 1591 1592 1593 1594 1595,https://www.nytimes.com:443/article/senate-races-2024-election.html:150,https://www.nfl.com:443/standings/conference/2023/REG:103 104 105 106,https://en.wikipedia.org:443/wiki/Category:Use_mdy_dates_from_October_2023:159,https://en.wikipedia.org:443/wiki/Major_professional_sports_teams_of_the_United_States_and_Canada:271 272 273 274,https://en.wikipedia.org:443/wiki/Sports_in_Arizona:214 215 216 217,https://en.wikipedia.org:443/wiki/Sports_in_Maryland:836 837 838 839 840,https://www.nfl.com:443/teams/seattle-seahawks/:87 88 89 90 