career career-0 11211 https://www.ft.com:443/content/03cc24ca-dc69-4bd6-8f2d-7509b0f6b6f1:199 200 201 202,https://en.wikipedia.org:443/wiki/United_States_men%27s_national_soccer_team:1190 1191 1192,https://en.wikipedia.org:443/wiki/New_England:1343,https://en.wikipedia.org:443/wiki/Bureau_of_Diplomatic_Security:673,https://www.usatoday.com:443/news/nation/:40,https://www.usatoday.com:443/for-subscribers/:39,https://www.nytimes.com:443/section/fashion?page=9:303 304,https://en.wikipedia.org:443/wiki/American_League:412,https://www.nytimes.com:443/2024/05/04/nyregion/columbia-protests-arrest-agitators-israel.html:198,https://www.nytimes.com:443/live/2024/01/19/world/israel-hamas-news/a-un-official-says-israeli-treatment-of-detainees-may-amount-to-torture?smid=url-share:448,https://www.indycar.com:443/news/2022/02/02-22-internationaltv:75,https://www.nytimes.com:443/interactive/2024/04/25/nyregion/trump-trial-hush-money-payments.html:47,https://www.nytimes.com:443/section/reader-center:68,https://en.wikipedia.org:443/wiki/Ice_hockey:860,https://en.wikipedia.org:443/wiki/Architecture_of_the_United_States:984,https://www.azcentral.com:443/story/sports/nfl/cardinals/2015/09/06/nfls-dynasties-decade/71605710/:91,https://en.wikipedia.org:443/wiki/War_in_Afghanistan_(2001%E2%80%932021):3797,https://en.wikipedia.org:443/wiki/American_exceptionalism:982 983,https://www.nytimes.com:443/reviews/dining:53,https://en.wikipedia.org:443/wiki/Sports_in_Samoa:217 218 219 220 221,https://www.nytimes.com:443/section/jobs:54 55,https://www.usatoday.com:443/story/news/politics/2022/08/04/krysten-sinema-inflation-reduction-act-senator-democrats-vote/10234906002/:56,https://www.purdue.edu:443/newsroom/releases/2016/Q3/purdue-university-sets-records-for-largest-enrollment-and-highest-graduation-rates-ever.html:51 52,https://www.battlefields.org:443/preserve/saved-land:121,https://www.nytco.com:443/notice-of-transparency-in-health-care-costs/:15 16 17,https://en.wikipedia.org:443/wiki/Boston_Red_Sox:1792 1793 1794 1795 1796 1797 1798 1799 1800 1801 1802 1803 1804 1805 1806 1807 1808 1809 1810,https://en.wikipedia.org:443/wiki/United_States_federal_civil_service:314 315 316 317 318 319,https://www.nfl.com:443/standings/conference/2023/REG:108,https://www.tlc.com:443/parenting/are-men-or-women-more-likely-to-want-kids-study:91 92,https://www.ncaa.org:443/sports/2021/5/3/membership-directory.aspx:26,https://en.wikipedia.org:443/wiki/Constitution_of_the_United_States:1732 1733 1734,https://www.nytimes.com:443/section/books/review?page=7:268,https://www.businessinsider.com:443/fastest-growing-sport-in-america-2011-9:52 53 54,https://www.nytimes.com:443/interactive/2024/nyregion/trump-manhattan-criminal-trial-witnesses.html:81,https://driveelectric.gov:443/stations-growth?level_2=true&amp;dc_fast=true&amp;available=true&amp;start_month=2021-01&amp;end_month=2024-04:23,https://en.wikipedia.org:443/wiki/United_States_Public_Health_Service_Commissioned_Corps:307 308 309,https://en.wikipedia.org:443/wiki/College_athletics_in_the_United_States:797 798,https://www.usatoday.com:443/story/sports/winter-olympics-2018/2018/02/13/medalists-2018-winter-olympics-get-precious-keepsake-and-medal/332267002/:32,https://www.gallup.com:443/394505/indicator-life-evaluation-index.aspx:90 91 92,https://www.ncaa.org:443/sb_output.aspx?form=28:22,https://en.wikipedia.org:443/wiki/Boston:2626 2627 2628 2629,https://en.wikipedia.org:443/wiki/MLB_Network:628,https://www.nytimes.com:443/by/pamela-paul:48,https://www.nytimes.com:443/2024/05/03/books/cj-sansom-dead.html:97,https://www.nytco.com:443/:13 14 15,https://en.wikipedia.org:443/wiki/Antisemitism_in_the_United_States:895,https://www.nytimes.com:443/2024/05/02/us/blast-mortar-brain-injury-military.html:196,https://en.wikipedia.org:443/wiki/Sports_in_Armenia:528,https://spoiler.bolavip.com:443/en/celebrities/ryan-gosling-net-worth:75 76 77,https://www.gallup.com:443/corporate/468077/media-center.aspx:50 51 52,https://en.wikipedia.org:443/wiki/Template_talk:United_States_topics:251,https://www.sportsbusinessjournal.com:443/Archive/Sections/International.aspx:158 159 160,https://en.wikipedia.org:443/wiki/National_Football_League:1028 1029 1030 1031 1032 1033,https://en.wikipedia.org:443/wiki/Jack_Nicklaus:1063 1064 1065 1066 1067 1068 1069 1070 1071 1072 1073 1074 1075 1076 1077 1078 1079 1080 1081 1082 1083 1084 1085 1086 1087 1088 1089 1090 1091 1092 1093 1094 1095 1096 1097 1098 1099 1100 1101 1102 1103 1104 1105 1106 1107 1108 1109 1110 1111 1112 1113 1114,https://en.wikipedia.org:443/wiki/Snowboarding:563,https://en.wikipedia.org:443/wiki/New_England_Patriots:2023 2024 2025 2026 2027 2028 2029 2030 2031 2032 2033 2034 2035 2036 2037 2038 2039 2040 2041 2042 2043 2044 2045 2046 2047 2048,https://en.wikipedia.org:443/wiki/Sports_in_Washington:631,https://en.wikipedia.org:443/wiki/Sports_in_the_United_States:713,https://en.wikipedia.org:443/wiki/Southern_United_States:1643 1644 1645,https://cooking.nytimes.com:443/about-us:102,https://www.nytimes.com:443/article/trump-hush-money-trial-transcripts.html:47,https://en.wikipedia.org:443/wiki/History_of_the_United_States_(2008%E2%80%93present):1649,https://en.wikipedia.org:443/wiki/Sports_in_Namibia:140,https://www.nytimes.com:443/2024/05/04/nyregion/trump-trial-scandals-testimony.html:146 147,https://www.ncaa.org:443/sports/2021/4/21/division-ii-academics.aspx:45,https://bleacherreport.com:443/articles/2748217-gsp-vacates-belt-champion-robert-whittaker-will-face-luke-rockhold-at-ufc-221:27 28,https://www.sportsbusinessjournal.com:443/Articles/2023/10/23/mls-sets-attendance-record-for-season:141 142 143,https://www.nfl.com:443/teams/baltimore-ravens/:107,https://en.wikipedia.org:443/wiki/Sports_in_India:2375 2376 2377,https://www.bbc.co.uk:443/news/world-us-canada-55358342:78,https://www.gallup.com:443/corporate/216134/media-inquiries.aspx:42 43 44,https://en.wikipedia.org:443/wiki/NBA:1038 1039 1040,https://en.wikipedia.org:443/wiki/The_Washington_Post:897,https://en.wikipedia.org:443/wiki/Mayoralty_in_the_United_States:85,https://www.nytimes.com:443/section/sports:32 33,https://en.wikipedia.org:443/wiki/Louise_Suggs:207 208 209 210 211 212 213 214 215 216 217 218,https://en.wikipedia.org:443/wiki/Baseball:1944 1945,https://www.dandc.eu:443/en/article/dangers-us-administration-negotiating-taliban-without-involving-afghan-government:86,https://www.businessinsider.com:443/s:83 84 85,https://en.wikipedia.org:443/wiki/Democratic_Party_(United_States):1751,https://ww2.arb.ca.gov:443/our-work/programs/low-carbon-fuel-standard/about:97,https://en.wikipedia.org:443/wiki/Sports_in_Kentucky:591,https://en.wikipedia.org:443/wiki/Carlos_Bocanegra:463 464 465 466 467 468 469 470 471 472 473 474 475 476 477 478,https://www.businessinsider.com:443/real-estate:191 192 193,https://news.gallup.com:443/poll/224864/football-americans-favorite-sport-watch.aspx:124 125 126,https://en.wikipedia.org:443/wiki/Education_in_the_United_States:1271 1272 1273 1274 1275 1276,https://www.patriots.com:443/news/ben-coates-elected-to-patriots-hall-of-fame-140866:176 177 178 179 180 181 182 183 184,https://en.wikipedia.org:443/wiki/WNBA%27s_Top_15_Team:88 89 90 91 92 93 94 95 96,https://www.nytco.com:443/careers/:17 18 19 20 21,https://www.patriots.com:443/cheerleaders/pat-patriot:86,https://www.nytimes.com:443/2024/05/02/business/horse-racing-deaths-kentucky-derby.html:170,https://www.sportsbusinessjournal.com:443/Journal/Issues/2024/03/04.aspx:156 157 158,https://www.nytimes.com:443/books/best-sellers/:579,https://en.wikipedia.org:443/wiki/Sports_in_Poland:309 310 311 312 313 314,https://www.nytimes.com:443/2022/02/11/sports/horse-racing/medina-spirit-kentucky-derby-necropsy.html?searchResultPosition=2:100,https://www.usatoday.com:443/story/sports/mlb/2013/08/11/fox-sports-1-versus-espn/2641247/:138,https://www.nytimes.com:443/2024/04/18/nyregion/trump-trial-jury-hush-money.html:65,https://en.wikipedia.org:443/wiki/National_Reconnaissance_Office:623,https://www.nytimes.com:443/column/out-there:32,https://www.nytimes.com:443/2024/04/24/podcasts/laufey-gen-zs-jazz-icon-sings-for-anxious-generation.html:266 267,https://en.wikipedia.org:443/wiki/Sports_in_Finland:305,https://www.thetimes.co.uk:443/article/susan-hall-tory-mayoral-candidate-liked-tweet-praising-enoch-powell-zqsr6lvfk:44,https://en.wikipedia.org:443/wiki/MLS:1432 1433,https://www.theguardian.com:443/us/soccer:121,https://en.wikipedia.org:443/wiki/Literacy_in_the_United_States:711 712,https://en.wikipedia.org:443/wiki/Sports_in_Venezuela:370,https://news.gallup.com:443/vault/203270/gallup-vault-football-rise-spectator-sport.aspx:81 82 83,https://en.wikipedia.org:443/wiki/Fenway_Park:1600 1601 1602 1603 1604,https://en.wikipedia.org:443/wiki/Sports_in_Estonia:201 202 203 204 205 206,https://www.sbnation.com:443/2014/10/5/6916597/nba-new-tv-deal-espn-turner-24-billion:104 105 106,https://www.nfl.com:443/teams/philadelphia-eagles/:94,https://www.nytimes.com:443/section/obituaries:73,https://www.sportsbusinessjournal.com:443/Journal/Issues/2012/04/02/Media/Fox-channel.aspx:156 157 158,https://en.wikipedia.org:443/wiki/Sports_in_France:267,https://en.wikipedia.org:443/wiki/College_basketball:884 885,https://www.nytimes.com:443/video/last-word:151,https://en.wikipedia.org:443/wiki/USA_Baseball:1062 1063 1064 1065,https://news.gallup.com:443/topic/retirement.aspx:81 82 83,https://www.nytimes.com:443/2024/05/02/arts/music/tiktok-universal-music-deal.html:115,https://en.wikipedia.org:443/wiki/U.S._Immigration_and_Customs_Enforcement:794 795 796,https://en.wikipedia.org:443/wiki/Vietnam_War:2608,https://www.usatoday.com:443/story/sports/mlb/2016/11/03/world-series-tv-television-ratings-chicago-cubs-cleveland-indians/93231896/:29 30,https://nirsa.net:443/nirsa/:49 50 51,https://www.nfl.com:443/standings/:111,https://www.nytimes.com:443/2024/05/03/nyregion/trump-trial-hope-hicks-takeaways.html:91,https://www.businessinsider.com:443/a-timeline-of-trumps-efforts-to-overturn-the-2020-election-2021-10:141 142 143,https://www.nytimes.com:443/spotlight/podcasts?page=6:384,https://www.nytimes.com:443/2024/05/03/arts/design/stanley-stellar-frieze-photography.html:120,https://en.wikipedia.org:443/wiki/Drug_Enforcement_Administration:920 921 922,https://www.ncaa.org:443/sports/2021/5/11/division-i-finances.aspx:43,https://www.usopc.org:443/paralympic-sport-development:15 16,https://www.sportsbusinessjournal.com:443/Daily/Issues/2024/04/29.aspx:149 150 151,https://en.wikipedia.org:443/wiki/Inter_Miami:1019 1020 1021 1022,https://millercenter.org:443/president/adams/essays/clay-1825-secretary-of-state:79,https://www.nfl.com:443/teams/seattle-seahawks/:92,https://nces.ed.gov:443/blogs/nces/post/where-can-i-find-information-about-the-condition-of-education-in-the-united-states:35,https://wtop.com:443/virginia/2020/01/virginia-becomes-38th-state-to-ratify-equal-rights-amendment-but-it-may-be-too-late/:87,https://www.usatoday.com:443/story/sports/soccer/2017/02/02/nwsl-matches-will-be-shown-on-lifetime-each-saturday/97394336/:52,https://www.nfl.com:443/teams/indianapolis-colts/:96,https://www.commanders.com:443/news/commanders-agree-to-trade-de-montez-sweat-to-chicago-bears:59 60 