cement cement-0 930 https://en.wikipedia.org:443/wiki/Snowboarding:597,https://en.wikipedia.org:443/wiki/International_rankings_of_the_United_States:184,https://www.azcentral.com:443/story/sports/nfl/cardinals/2015/09/06/nfls-dynasties-decade/71605710/:95,https://en.wikipedia.org:443/wiki/Architecture_of_the_United_States:1034,https://en.wikipedia.org:443/wiki/War_in_Afghanistan_(2001%E2%80%932021):3904,https://en.wikipedia.org:443/wiki/United_States_dollar:951,https://en.wikipedia.org:443/wiki/Supreme_Court_of_the_United_States:2328,https://en.wikipedia.org:443/wiki/Vietnam_War:2757,https://www.theguardian.com:443/us/soccer:127,https://www.nytimes.com:443/2024/05/02/arts/design/petrit-halilaj-kosovo-met-roof.html:165,https://en.wikipedia.org:443/wiki/Articles_of_Confederation:1011,https://www.nytimes.com:443/2024/05/04/opinion/trump-second-term-illiberalism.html:164,https://en.wikipedia.org:443/wiki/Agriculture_in_the_United_States:852 