center center-0 26797 https://www.sbncollegehockey.com:443/high-school-hockey/2015/3/7/8167923/2015-minnesota-boys-high-school-total-attendance-record-135618:45 46 47,https://www.nytimes.com:443/2013/01/12/opinion/is-this-the-afghan-wars-last-chapter.html?_r=3&amp;:79 80,https://www.nytimes.com:443/2024/04/17/opinion/venezuela-oil-sanctions.html:92 93,https://www.nytimes.com:443/section/health?page=7:304,https://commons.wikimedia.org:443/wiki/Category:Sports_in_the_United_States:132,https://www.nytimes.com:443/section/science?page=9:356 357,https://www.nytimes.com:443/2024/04/18/nyregion/trump-trial-jury-hush-money.html:75 76,https://www.nytimes.com:443/spotlight/graphics?page=10:394 395 396,https://www.nytimes.com:443/2023/09/07/climate/climate-forward-event.html:86 87 88,https://www.nytimes.com:443/2024/05/04/us/politics/biden-insulin-voters-drugs.html:145 146 147,https://www.wired.com:443/2016/08/olympic-cities-everywhere/:136,https://www.usatoday.com:443/news/nation/:44,https://en.wikipedia.org:443/wiki/Sports_in_the_United_States:746,https://en.wikipedia.org:443/wiki/Jack_Nicklaus:1149,https://www.usatoday.com:443/story/news/politics/2022/08/04/krysten-sinema-inflation-reduction-act-senator-democrats-vote/10234906002/:61,https://www.nytimes.com:443/live/2024/01/19/world/israel-hamas-news/a-un-official-says-israeli-treatment-of-detainees-may-amount-to-torture?smid=url-share:472 473,https://en.wikipedia.org:443/wiki/Professional_Disc_Golf_Association:126 127 128 129 130,https://en.wikipedia.org:443/wiki/MLS:1482 1483 1484 1485 1486 1487,https://en.wikipedia.org:443/wiki/Drug_Enforcement_Administration:966 967 968 969 970 971 972 973 974 975 976 977 978 979 980 981 983,https://en.wikipedia.org:443/wiki/U.S._Biathlon_Association:57,https://en.wikipedia.org:443/wiki/ISSN_(identifier):157,https://en.wikipedia.org:443/wiki/Major_Arena_Soccer_League:390 391 392 393 394 395 396 397 398 399 400 401 402 403 404 405 406 407 408 409 410,https://www.nytimes.com:443/2021/08/16/world/asia/afghanistan-taliban-video.html:145 146 147,https://en.wikipedia.org:443/wiki/American_Revolution:2660 2661 2662 2663 2664,https://en.wikipedia.org:443/wiki/Sports_in_Armenia:542,https://www.theatlantic.com:443/magazine/archive/2023/01/homelessness-affordable-housing-crisis-democrats-causes/672224/:177,https://www.nytimes.com:443/section/travel:101,https://www.azcentral.com:443/story/sports/nfl/cardinals/2015/09/06/nfls-dynasties-decade/71605710/:96,https://wtop.com:443/virginia/2020/01/virginia-becomes-38th-state-to-ratify-equal-rights-amendment-but-it-may-be-too-late/:96 97,https://commons.wikimedia.org:443/wiki/Category:War_in_Afghanistan_(2001%E2%80%932021):281,https://www.nytimes.com:443/2024/04/27/us/politics/trump-trial-fact-check.html:133 134,https://www.nytimes.com:443/2019/06/19/us/newsom-native-american-apology.html:150 151 152,https://www.usopc.org:443/paralympic-sport-development:17 18,https://www.nytimes.com:443/interactive/2024/02/22/crosswords/puzzle-personality.html:39 40,https://news.gallup.com:443/vault/203270/gallup-vault-football-rise-spectator-sport.aspx:84 85 86 87 88,https://www.nytimes.com:443/video/op-docs:36,https://www.nytimes.com:443/2024/04/27/opinion/left-right-happiness.html:86 87,https://en.wikipedia.org:443/wiki/Inter_Miami:1056 1057 1058 1059,https://www.nytimes.com:443/section/t-magazine:140,https://nces.ed.gov:443/blogs/nces/post/where-can-i-find-information-about-the-condition-of-education-in-the-united-states:39 40,https://en.wikipedia.org:443/wiki/United_States_Declaration_of_Independence:1395 1396 1397 1398,https://www.nytimes.com:443/2024/05/02/opinion/israel-saudi-arabia.html:156 157,https://www.nytimes.com:443/live/2024/05/04/us/biden-trump-campaign:83 84 85,https://commons.wikimedia.org:443/wiki/Category:Sports_in_Ecuador:125,https://www.nytimes.com:443/2024/04/14/fashion/vintage-watches-reissued.html:95 96,https://en.wikipedia.org:443/wiki/Speaker_of_the_United_States_House_of_Representatives:594 595,https://www.nytimes.com:443/spotlight/nyt-events:69,https://en.wikipedia.org:443/wiki/Major_professional_sports_teams_of_the_United_States_and_Canada:287 288 289 290 291 292 293 294 295 296 297 298 299 300 301 302 303 304 305 306 307 308 309 310,https://en.wikipedia.org:443/wiki/Baseball:2026 2027 2028 2029 2030 2031 2032,https://en.wikipedia.org:443/wiki/Sports_in_France:276 277 278 279,https://en.wikipedia.org:443/wiki/West_Coast_of_the_United_States:473 474 475,https://www.nytimes.com:443/2023/11/21/dining/restaurant-review-bangkok-supper-club.html?rref=collection%2Fcollection%2Frestaurant-guide:130 131,https://www.nytimes.com:443/2024/04/02/world/middleeast/gaza-al-shifa-hospital.html:143 144 145,https://www.nytimes.com:443/2024/05/04/world/europe/sadiq-khan-london-mayor-results.html:103 104 105,https://cooking.nytimes.com:443/recipes/1018626-eggs-benedict:332,https://www.nytimes.com:443/2024/05/03/climate/nasa-satellites-data.html:132 133 134 135,https://www.nytimes.com:443/2024/05/04/opinion/trump-second-term-illiberalism.html:165 166,https://www.usatoday.com:443/story/sports/winter-olympics-2018/2018/02/13/medalists-2018-winter-olympics-get-precious-keepsake-and-medal/332267002/:33,https://www.bbc.co.uk:443/news/world-us-canada-55358342:82,https://en.wikipedia.org:443/wiki/U.S._state:672 673 674 675,https://en.wikipedia.org:443/wiki/Greenhouse_gas_emissions_by_the_United_States:592,https://www.nytimes.com:443/2024/04/26/us/politics/kristi-noem-dog-killing.html:73 74 75,https://www.nytimes.com:443/:109 110 111,https://en.wikipedia.org:443/wiki/Town_meeting:365 366 367,https://cooking.nytimes.com:443/recipes/1024760-chocolate-layer-cake:363 364 365,https://www.ncaa.org:443/sb_output.aspx?form=28:23 24,https://www.nytimes.com:443/live/2024/05/04/world/israel-gaza-war-hamas:250 251 252 253,https://www.nytimes.com:443/2024/05/02/us/politics/abortion-ballot-measures-2024.html:205 206 207,https://www.nytimes.com:443/2024/05/02/arts/design/petrit-halilaj-kosovo-met-roof.html:166 167,https://www.nytimes.com:443/2024/05/02/business/horse-racing-deaths-kentucky-derby.html:185 186 187,https://en.wikipedia.org:443/wiki/MLB_Network:676 677 678,https://www.cnn.com:443/2020/08/24/politics/muslim-ice-detainees-pork-meals/index.html:113 114 115,https://www.nytimes.com:443/2024/05/04/opinion/gaza-child-deaths.html:59 60,https://en.wikipedia.org:443/wiki/Fashion_in_the_United_States:239,https://en.wikipedia.org:443/wiki/Culture_of_the_United_States:1687 1688 1689 1690 1691 1692 1693 1694 1695 1696 1697 1698 1699,https://www.nytimes.com:443/2024/05/03/opinion/nuclear-power-energy.html:113 114,https://www.nytimes.com:443/2017/06/26/health/undocumented-immigrants-health-care.html:163 164 165 166 167 168 169,https://www.nytimes.com:443/2024/05/04/world/middleeast/cindy-mccain-gaza-famine.html:91 92,https://en.wikipedia.org:443/wiki/Americans:2011 2012 2013 2014 2015 2016 2017 2018 2019 2020,https://www.nytimes.com:443/live/2024/05/04/us/college-campus-protests:467 468 469 470,https://en.wikipedia.org:443/wiki/List_of_U.S._states_and_territories_by_life_expectancy:286 287 288 289 290 291 292 293,https://www.ncaa.org:443/sports/2021/4/21/division-ii-academics.aspx:46 47 48,https://en.wikipedia.org:443/wiki/Architecture_of_the_United_States:1036 1037 1038 1039 1040 1041 1042,https://en.wikipedia.org:443/wiki/Supreme_Court_of_the_United_States:2329 2330 2331 2332 2333 2334 2335 2336 2337 2338 2339 2340 2341,https://en.wikipedia.org:443/wiki/Immigrant_health_care_in_the_United_States:742 743 744 745 746 747 748 749 750 751 752 753 754 755 756 757 758 759 760 761 762 763 764 765 766 767 768 769 770 771 772 773 774 775 776 777 778 779 780 781 782 783 784 785 786 787,https://commons.wikimedia.org:443/wiki/Category:Sports_in_Finland:49,https://www.usatoday.com:443/story/sports/mlb/2013/08/11/fox-sports-1-versus-espn/2641247/:144 145,https://en.wikipedia.org:443/wiki/Sports_in_Syria:267 268 269 270,https://www.gallup.com:443/corporate/216134/media-inquiries.aspx:45,https://www.nytimes.com:443/interactive/2021/07/07/opinion/minimum-corporate-tax.html:101 102,https://en.wikipedia.org:443/wiki/Maternal_mortality_in_the_United_States:610 611 612 613 614 615 616 617 618 619 620 621 622 623 624 625 626 627 628,https://en.wikipedia.org:443/wiki/Terrorism_in_the_United_States:2318 2319 2320 2321 2322 2323 2324 2325 2326 2327 2328 2329 2330 2331 2332 2333 2334 2335 2336 2337 2338 2339 2340 2341 2342 2343 2344 2345 2346 2347 2348 2349 2350 2351 2352 2353 2354 2355 2356 2357 2358 2359 2360 2361 2362 2363 2364,https://en.wikipedia.org:443/wiki/National_symbols_of_the_United_States:226,https://www.nytimes.com:443/interactive/2024/05/03/opinion/global-billionaires-tax.html:142 143,https://en.wikipedia.org:443/wiki/History_of_the_United_States_(1849%E2%80%931865):771 772 773 774 775 776 777 778,https://www.nytimes.com:443/2024/05/03/opinion/us-africa-niger-chad.html:102 103 104 105,https://www.purdue.edu:443/newsroom/releases/2016/Q3/purdue-university-sets-records-for-largest-enrollment-and-highest-graduation-rates-ever.html:53,https://www.nytimes.com:443/2024/05/04/business/energy-environment/tesla-electric-vehicles-supercharger.html:145 146 147,https://www.nytimes.com:443/section/us:75 76,https://en.wikipedia.org:443/wiki/History_of_the_United_States_debt_ceiling:410 411 412,https://www.nytimes.com:443/2024/04/18/t-magazine/chalet-des-iles-paris-restaurant.html:200 201 202 203 204 205 206 207,https://archive.curbed.com:443/2020/1/13/21026108/public-housing-faircloth-amendment-election-2020:117,https://www.nytimes.com:443/2024/04/01/fashion/craft-handmade-umbrella-italy.html:124 125 126,https://www.nytimes.com:443/news-event/2024-election:84 85,https://www.usatoday.com:443/story/sports/mlb/2016/11/03/world-series-tv-television-ratings-chicago-cubs-cleveland-indians/93231896/:32,https://www.nytimes.com:443/2024/05/03/us/abortion-rights-missouri-south-dakota.html:143 144,https://www.nytimes.com:443/section/nyregion?page=4:171,https://www.nytimes.com:443/2024/05/01/magazine/catholic-cousin-annulment-ethics.html:87 88 89,https://www.gallup.com:443/394505/indicator-life-evaluation-index.aspx:100,https://www.nytimes.com:443/live/2024/05/03/world/israel-gaza-war-hamas:245 246 247 248,https://en.wikipedia.org:443/wiki/Housing_in_the_United_States:197 198,https://www.nytimes.com:443/2024/05/04/opinion/chronic-illness-vaccines-long-covid.html:80 81,https://en.wikipedia.org:443/wiki/Fenway_Park:1676 1677 1678 1679 1680 1681 1682 1683 1684 1685 1686 1687 1688 1689 1690 1691 1692 1693 1694 1695 1696 1697 1698 1699 1700 1701 1702 1703 1704 1705 1706 1707 1708 1709 1710 1711 1712 1713 1714 1715 1716 1717 1718 1719 1720 1721 1722 1723 1724 1725 1726 1727 1728 1729 1730 1731 1732 1733,https://www.nytimes.com:443/2024/05/03/arts/design/stanley-stellar-frieze-photography.html:125 126 127,https://www.nytimes.com:443/article/trump-hush-money-trial-transcripts.html:54 55,https://www.nytimes.com:443/2024/04/20/health/seniors-home-equity-mortgages.html:142 143 144 145 146 147 148 149,https://en.wikipedia.org:443/wiki/Literacy_in_the_United_States:748 749 750 751 752 753 754 755 756 757 758 759 760 761 762 763 764 765 766 767,https://www.nytimes.com:443/2024/05/03/opinion/campus-protests-israel-gaza.html:259 260,https://commons.wikimedia.org:443/wiki/Category:Bodybuilding_in_the_United_States:24,https://news.gallup.com:443/topic/retirement.aspx:85 86 87 88 89,https://www.nytimes.com:443/section/health:120,https://en.wikipedia.org:443/wiki/Powers_of_the_president_of_the_United_States:425 426 427 428 429 430 431 432,https://www.nytimes.com:443/2019/01/31/opinion/letters/letters-to-editor-new-york-times-women.html:67 68 69,https://www.nytimes.com:443/interactive/2024/03/28/travel/things-to-do-mumbai.html:225 226 227 228 229,https://www.pbs.org:443/wgbh/americanexperience/features/klansville-faq/:141 142,https://www.nytimes.com:443/spotlight/nyt-events?page=2:83,https://www.nytimes.com:443/2024/05/03/theater/the-miser-review-brooklyn.html:70 71 72 73,https://en.wikipedia.org:443/wiki/Colonial_history_of_the_United_States:1880 1881 1882 1883 1884 1885 1886,https://en.wikipedia.org:443/wiki/Iroquois:2023 2024 2025 2026 2027 2028 2029 2030 2031 2032 2033,https://www.cbo.gov:443/publication/53348:36,https://www.tlc.com:443/parenting/are-men-or-women-more-likely-to-want-kids-study:101,https://en.wikipedia.org:443/wiki/Bodybuilding_in_the_United_States:191,https://en.wikipedia.org:443/wiki/Sports_in_American_Samoa:210,https://www.nytimes.com:443/2024/04/29/realestate/renters-astoria-queens.html:128 129,https://cooking.nytimes.com:443/recipes/1023559-ina-gartens-bourbon-chocolate-pecan-pie:257,https://www.nytimes.com:443/2024/05/03/nyregion/trump-trial-hope-hicks-takeaways.html:101 102,https://en.wikipedia.org:443/wiki/U.S._Immigration_and_Customs_Enforcement:828 829 830 831 832 833 834 835 836 837 838 839 840 841 842 843 844 845 846 847 848 849 850 851 852 853 854 855,https://en.wikipedia.org:443/wiki/Sports_in_India:2434,https://en.wikipedia.org:443/wiki/Education_in_the_United_States:1341 1342 1343 1344 1345 1346 1347 1348 1349 1350 1351 1352 1353 1354 1355 1356 1357 1358 1359 1360 1361 1362 1363 1364 1365 1366 1367 1368 1369,https://www.nytimes.com:443/2022/02/11/sports/horse-racing/medina-spirit-kentucky-derby-necropsy.html?searchResultPosition=2:105 106,https://www.nytimes.com:443/international/:90,https://www.nytimes.com:443/article/senate-races-2024-election.html:154 155,https://en.wikipedia.org:443/wiki/Bureau_of_Diplomatic_Security:689 690 691 692 693 694 695 696,https://www.nytimes.com:443/section/corrections?page=5:153,https://en.wikipedia.org:443/wiki/United_States_Olympic_%26_Paralympic_Committee:565 566 567 568 569 570 571,https://commons.wikimedia.org:443/wiki/Category:Sports_in_Panama:25,https://en.wikipedia.org:443/wiki/Boston_Red_Sox:1913 1914 1915 1916 1917 1918 1919 1920 1921 1922 1923 1924,https://www.usatoday.com:443/story/sports/soccer/2017/02/02/nwsl-matches-will-be-shown-on-lifetime-each-saturday/97394336/:54,https://en.wikipedia.org:443/wiki/Special_district_(United_States):248,https://en.wikipedia.org:443/wiki/Southern_United_States:1825 1826 1827 1828 1829 1830 1831 1832 1833 1834 1835 1836 1837 1838 1839 1840 1841 1842 1843 1844 1845 1846 1847 1848 1849 1850 1851,https://en.wikipedia.org:443/wiki/Boston:2750 2751 2752 2753 2754 2755 2756 2757 2758 2759 2760 2761 2762 2763 2764 2765 2766 2767 2768 2769 2770 2771 2772 2773 2774 2775 2776 2777 2778 2779 2780 2781 2782 2783 2784 2785 2786 2787 2788 2789 2790 2791 2792 2793 2794 2795 2796 2797 2798 2799 2800 2801 2802 2803 2804 2805 2806 2807 2808,https://en.wikipedia.org:443/wiki/United_States_Public_Health_Service_Commissioned_Corps:323 324 325 326 327 328 329 330,https://commons.wikimedia.org:443/wiki/Category:Awards_associated_with_sports_of_the_United_States:78,https://www.nytimes.com:443/interactive/2024/nyregion/trump-manhattan-criminal-trial-witnesses.html:89 90,https://www.gallup.com:443/corporate/468077/media-center.aspx:53 54 55 56 57,https://en.wikipedia.org:443/wiki/New_England_Patriots:2160 2161,https://www.commanders.com:443/news/commanders-agree-to-trade-de-montez-sweat-to-chicago-bears:63,https://www.nytimes.com:443/interactive/2024/02/01/magazine/israel-founding-palestinian-conflict.html:218 219 220,https://www.nytimes.com:443/2009/01/05/opinion/05krugman.html:77 78,https://en.wikipedia.org:443/wiki/NBA:1109 1110 1111 1112 1113 1114 1115 1116 1117 1118 1119 1120 1121 1122 1123 1124 1125 1126 1127 1128 1129 1130,https://www.nytimes.com:443/2024/05/02/learning/word-of-the-day-rapport.html:52 53,https://en.wikipedia.org:443/wiki/Prescription_drug_prices_in_the_United_States:708 709 710 711 712 713 714 715 716 717,https://en.wikipedia.org:443/wiki/USA_Cycling:231 232,https://history.army.mil:443/books/wwii/persian/index.htm:167,https://www.nytimes.com:443/2024/05/03/world/europe/campus-protests-rorschach-test.html:194 195,https://en.wikipedia.org:443/wiki/Volleyball:893 894,https://www.nytimes.com:443/2024/04/10/style/rishi-sunak-adidas-sambas.html:95 96,https://www.nytimes.com:443/2024/05/04/us/kentucky-derby-race-photos.html:56 57,https://en.wikipedia.org:443/wiki/Sports_in_Maryland:894 895 896 897 898 899 900 901 902 903 904 905 906 907 908 909 910 911 912 913 914 915,https://www.nytimes.com:443/interactive/2024/04/25/nyregion/trump-trial-hush-money-payments.html:56 57,https://en.wikipedia.org:443/wiki/National_Reconnaissance_Office:645 646 647 648 649 650 651 652 653 654 655 656 657 658 659 660 661 662 663 664 665 666 667 668,https://www.nytimes.com:443/2021/07/07/style/how-the-french-manicure-made-its-comeback.html:85 86,https://www.ncaa.org:443/sports/2021/5/3/membership-directory.aspx:27 28,https://en.wikipedia.org:443/wiki/Olympic_Games:1773 1774 1775 1776,https://www.nytimes.com:443/section/books/review?page=7:281 282,https://www.nytimes.com:443/2014/11/11/technology/obama-net-neutrality-fcc.html:110 111,https://en.wikipedia.org:443/wiki/Sports_in_Washington:646 647 648 649 650 651 652 653 654 655 656 657 658 659,https://en.wikipedia.org:443/wiki/Environmental_issues_in_the_United_States:467 468 469 470 471 472 473,https://www.packers.com:443/community/shareholders:79,https://www.nytimes.com:443/2024/04/24/us/palestinian-family-gaza-war-death.html:308 309,https://en.wikipedia.org:443/wiki/Indiana:1349 1350 1351 1352 1353 1354 1355 1356 1357 1358 1359 1360 1361 1362 1363 1364 1365 1366 1367 1368 1369 1370 1372 1373 1374 1375,https://www.nytimes.com:443/2024/05/04/us/politics/trump-biden-campaign-young-voters.html:125 126 127 128,https://www.nytimes.com:443/2024/04/30/learning/graphs.html:49 50,https://en.wikipedia.org:443/wiki/Democratic_Party_(United_States):1829 1830 1831 1832 1833 1834 1835 1836 1837 1838 1839 1840 1841 1842 1843 1844 1845 1846 1847 1848 1849 1850 1851 1852 1853 1854 1855 1856 1857 1858 1860,https://www.nytimes.com:443/2017/11/24/opinion/vietnam-the-chemical-war.html?mtrref=www.google.ca&amp;assetType=opinion:157 158,https://www.theguardian.com:443/sport/2017/aug/19/will-mcgregor-v-mayweather-save-american-boxing-or-bury-it?CMP=share_btn_link:240,https://en.wikipedia.org:443/wiki/Arkansas_River:411 412,https://en.wikipedia.org:443/wiki/Cold_War:2821 2822 2823 2824 2825 2826 2827 2828 2829 2830 2831,https://www.nytimes.com:443/interactive/2023/us/politics/presidential-candidates-2024.html:104 105,https://www.nytimes.com:443/interactive/2024/05/03/us/ucla-protests-encampment-violence.html:171 172,https://www.nytimes.com:443/2024/04/22/us/politics/israel-gaza-hamas-war.html:184 185 186 187,https://www.nytimes.com:443/section/arts/dance:61 62 63,https://www.nytimes.com:443/column/out-there:33,https://en.wikipedia.org:443/wiki/Perpetual_Union:443,https://www.cnn.com:443/2020/09/26/politics/supreme-court-conservative/index.html:202 203,https://nirsa.net:443/nirsa/:52,https://www.nytimes.com:443/2024/05/04/nyregion/trump-trial-scandals-testimony.html:174 175 176,https://en.wikipedia.org:443/wiki/Antisemitism_in_the_United_States:921 922 923 924 925 926 927 928 929 930,https://www.nytimes.com:443/section/politics:85 86,https://en.wikipedia.org:443/wiki/Constitution_of_the_United_States:1855 1856 1857 1858 1859 1860 1861 1862 1863 1864 1865 1866 1867 1868 1869 1870 1871 1872 1873 1874 1875 1876 1877,https://en.wikipedia.org:443/wiki/War_in_Afghanistan_(2001%E2%80%932021):3907 3908 3909 3910 3911 3912 3913 3914 3915 3916 3917 3918 3919 3920 3921 3922 3923 3924,https://en.wikipedia.org:443/wiki/Fox_Sports_1:670 671,https://en.wikipedia.org:443/wiki/Time_in_the_United_States:233,https://www.nytimes.com:443/2024/05/04/style/nonalcoholic-drinks-kids-mocktail.html:96 97,https://en.wikipedia.org:443/wiki/Sports_in_Kentucky:616 617 618 619,https://www.nytimes.com:443/live/2024/05/02/us/biden-trump-campaign:456 457 458,https://www.tlc.com:443/inside-tlc/TLC-Casting:144,https://commons.wikimedia.org:443/wiki/Category:Sports_in_Cura%C3%A7ao:25,https://www.nytimes.com:443/section/style:87,https://www.nytimes.com:443/2024/05/03/style/modern-love-we-didnt-know-it-was-the-last-time.html:115 116,https://www.nytimes.com:443/spotlight/podcasts:279,https://www.nytimes.com:443/article/wedding-feature-submission-form.html:78 79,https://en.wikipedia.org:443/wiki/Comparison_of_U.S._state_and_territory_governments:217 218,https://en.wikipedia.org:443/wiki/Sports_in_Yemen:187 188,https://www.nytimes.com:443/2024/03/30/opinion/abortion-drug-supreme-court.html:147 148,https://www.nytimes.com:443/2024/05/03/books/cj-sansom-dead.html:100 101,https://en.wikipedia.org:443/wiki/United_States_federal_civil_service:334 335 336,https://www.nytimes.com:443/news-event/trump-ny-hush-money-case:65,https://en.wikipedia.org:443/wiki/Beach_volleyball:929 930,https://en.wikipedia.org:443/wiki/Vietnam_War:2760 2761 2762 2763 2764 2765 2766 2767 2768 2769 2770 2771 2772 2773 2774 2775 2776 2777 2778 2779 2780,https://en.wikipedia.org:443/wiki/Agriculture_in_the_United_States:862 863 864 865 866 867 868 869 870 871 872 873 874 875 876 877 878 879 880 881 882 883 884 885 886 887 888 889 890 891 892 893 894 895 896 897 898 899 900 901,https://www.nytimes.com:443/2024/05/02/style/central-park-hat-luncheon.html:107 108,https://www.nytimes.com:443/2023/11/21/dining/restaurant-review-bangkok-supper-club.html:130 131,https://www.nytimes.com:443/spotlight/visual-investigations:272 273 274,https://www.nytimes.com:443/2005/09/18/opinion/conventional-wisdom.html:78 79,https://www.nytimes.com:443/2024/05/03/arts/television/jimmy-kimmel-donald-trump-trial.html:60 61,https://www.usatoday.com:443/for-subscribers/:40,https://en.wikipedia.org:443/wiki/American_League:423,https://en.wikipedia.org:443/wiki/The_Washington_Post:940 941 942 943 944,https://millercenter.org:443/president/adams/essays/clay-1825-secretary-of-state:82 83 84 85 86 87 88 89 90 91 92,https://www.nytimes.com:443/ca/:91,https://en.wikipedia.org:443/wiki/Spanish%E2%80%93American_War:2392 2393 2394 2395 2396 2397 2398 2399,https://www.nytimes.com:443/by/emily-cochrane:48,https://www.nytimes.com:443/2024/05/04/opinion/alexandria-ocasio-cortez.html:186 187 188,https://en.wikipedia.org:443/wiki/United_States_dollar:984,https://www.nytimes.com:443/2024/05/04/world/europe/uk-rishi-sunak-conservatives-elections.html:130 131 132,https://www.ncaa.org:443/sports/2021/5/11/division-i-finances.aspx:44 45,https://en.wikipedia.org:443/wiki/Henley_Royal_Regatta:415,https://en.wikipedia.org:443/wiki/History_of_the_United_States_(1945%E2%80%931964):1239 1240 1241 1242 1246 1247,https://en.wikipedia.org:443/wiki/Public_utilities_commission:181,https://www.nytimes.com:443/2022/11/03/insider/what-to-expect-at-this-years-crucial-climate-summit.html:54 55,https://en.wikipedia.org:443/wiki/New_England:1411 1412 1413 1414 1415 1416 1417 1418 1419 1420 1421 1422 1423 1424 1425 1426 1427 1428 1429 1430 1431 1432 1433 1434 1435 1436,https://meta.wikimedia.org:443/wiki/Category:United_States:85,http://www.nationalletter.org:80/:10,https://www.nytimes.com:443/2024/04/12/fashion/weddings/elena-bauer-joshua-fagel-wedding.html:125 126,https://www.nytimes.com:443/2023/11/29/business/dealbook/kamala-harris-biden-voters.html:111 112,https://www.nytimes.com:443/2024/04/29/learning/what-should-be-done-about-the-gender-pay-gap-in-sports.html:87 88,https://en.wikipedia.org:443/wiki/United_States_Attorney:442,https://www.nytimes.com:443/2024/05/02/arts/music/tiktok-universal-music-deal.html:117 118,https://www.nytimes.com:443/section/fashion/weddings:134,https://en.wikipedia.org:443/wiki/Gymnastics_in_the_United_States:303,https://en.wikipedia.org:443/wiki/Federal_law_enforcement_in_the_United_States:399 400 401 402 403,https://en.wikipedia.org:443/wiki/Articles_of_Confederation:1015 1016,https://www.nytimes.com:443/section/science:116,https://en.wikipedia.org:443/wiki/Tribal_sovereignty_in_the_United_States:571,https://en.wikipedia.org:443/wiki/List_of_U.S._state_statutory_codes:125 126,https://en.wikipedia.org:443/wiki/Francis_Olympic_Field:294 295 296 297 298 299 300 301 302 303 304 305 306 307 308 309,https://en.wikipedia.org:443/wiki/United_States_Minor_Outlying_Islands:264 265,https://www.nytimes.com:443/2024/05/02/us/blast-mortar-brain-injury-military.html:203 204,https://www.nytimes.com:443/es/:184 185,https://commons.wikimedia.org:443/wiki/Category:Sports_in_Maryland:79,https://en.wikipedia.org:443/wiki/Sergeant_at_Arms_of_the_United_States_Senate:301 302,https://news.gallup.com:443/poll/224864/football-americans-favorite-sport-watch.aspx:129 130 131 132 133,https://en.wikipedia.org:443/wiki/Boswell:99,https://www.nytimes.com:443/2024/04/24/podcasts/laufey-gen-zs-jazz-icon-sings-for-anxious-generation.html:273 274,https://www.forbes.com:443/sites/zachslaton/2012/10/15/how-the-mls-playoff-format-punishes-ambitious-teams/:84,https://www.nytimes.com:443/2024/05/01/us/free-speech-campus-protests.html:147 148,https://en.wikipedia.org:443/wiki/College_athletics_in_the_United_States:828 829 830 831,https://advertising.nytimes.com:443/:41,https://www.nytimes.com:443/section/obituaries:79,https://en.wikipedia.org:443/wiki/Northern_United_States:98 99,https://commons.wikimedia.org:443/wiki/Commons:Upload:34,https://en.wikipedia.org:443/wiki/Carlos_Bocanegra:530 531 532 533,https://en.wikipedia.org:443/wiki/United_States_Polo_Association:176 177 178 179 180 181 182 183,https://www.battlefields.org:443/preserve/saved-land:129 130,https://en.wikipedia.org:443/wiki/List_of_mountains_of_the_United_States:1162 1163 1164,https://en.wikipedia.org:443/wiki/History_of_the_United_States_(2008%E2%80%93present):1752 1753 1754 1755 1756 1757 1758 1759 1760 1761 1762 1763 1764 1765 1766,https://www.nytimes.com:443/2024/05/04/world/europe/russia-soldiers-women.html:149 150 151,https://www.nytimes.com:443/spotlight/podcasts?page=6:420,https://en.wikipedia.org:443/wiki/American_Sign_Language:1101 1102 1103,https://www.nytimes.com:443/2024/05/04/opinion/fat-activist-freedom-health.html:113 114,https://www.forbes.com:443/2008/09/09/mls-soccer-beckham-biz-sports-cz_kb_0909mlsvalues.html:46 47 48,https://en.wikipedia.org:443/wiki/Cable_television:744,https://www.nytimes.com:443/2024/05/04/nyregion/columbia-protests-arrest-agitators-israel.html:207 208,https://en.wikipedia.org:443/wiki/College_basketball:935 936 937 938 939 940 941 942 943,https://www.forbes.com:443/sites/carlieporterfield/2022/07/26/heres-why-pickleball-the-fastest-growing-sport-in-america-is-bill-gates-favorite-game/:76,https://www.nytimes.com:443/interactive/2018/08/25/opinion/sunday/student-debt-loan-default-college.html:60 61,https://www.nytimes.com:443/2023/04/14/us/politics/mike-pompeo-president-2024.html:99 100,https://commons.wikimedia.org:443/wiki/Category:Spectrum_Sports:17,https://www.nytimes.com:443/section/reader-center:76 77 78 