chicago chicago-0 9705 https://www.nytimes.com:443/2024/05/01/us/free-speech-campus-protests.html:157,https://www.nytimes.com:443/video/last-word:179,https://www.sbnation.com:443/2014/10/5/6916597/nba-new-tv-deal-espn-turner-24-billion:124 125 126,https://www.nfl.com:443/teams/philadelphia-eagles/:106 107,https://en.wikipedia.org:443/wiki/Americans:2085 2086 2087 2088 2089 2090 2091,https://www.themarshallproject.org:443/2022/06/14/what-did-fbi-data-say-about-crime-in-2021-it-s-too-unreliable-to-tell:122,https://en.wikipedia.org:443/wiki/Basketball_in_the_United_States:212 213,https://en.wikipedia.org:443/wiki/War_in_Afghanistan_(2001%E2%80%932021):4012 4013 4014,https://bolavip.com:443/en:116 117,https://en.wikipedia.org:443/wiki/Town_meeting:407 408 409 410 411 412 413 414,https://en.wikipedia.org:443/wiki/Democratic_Party_(United_States):1973 1974 1975 1976 1977 1978 1979 1980 1981 1982 1983 1984 1985 1986,https://cooking.nytimes.com:443/recipes/1022283-country-panzanella-with-watermelon-dressing:267,https://en.wikipedia.org:443/wiki/College_basketball:1053 1054 1055 1056 1057 1058 1059 1060 1061 1062,https://en.wikipedia.org:443/wiki/NBA:1266 1267 1268 1269 1270 1271 1272 1273 1274 1275 1276 1277 1278 1279 1280 1281 1282 1283,https://en.wikipedia.org:443/wiki/Fox_Sports_1:775 776 777,https://en.wikipedia.org:443/wiki/History_of_the_United_States_(2008%E2%80%93present):1836,https://en.wikipedia.org:443/wiki/Articles_of_Confederation:1078 1079,https://en.wikipedia.org:443/wiki/Carlos_Bocanegra:549 550 551 552 553 554 555 556 557 558 559 560,https://en.wikipedia.org:443/wiki/History_of_the_United_States_(1945%E2%80%931964):1326 1327,https://www.nytimes.com:443/by/charles-m-blow:74,https://en.wikipedia.org:443/wiki/Spanish%E2%80%93American_War:2515 2516 2517,https://en.wikipedia.org:443/wiki/Education_in_the_United_States:1446 1447 1448 1449 1450 1451,https://en.wikipedia.org:443/wiki/United_States_men%27s_national_soccer_team:1303 1304 1305 1306 1307,https://en.wikipedia.org:443/wiki/Literacy_in_the_United_States:813,https://en.wikipedia.org:443/wiki/MLB_Network:766 767 768 769 770,https://www.azcentral.com:443/story/sports/nfl/cardinals/2015/09/06/nfls-dynasties-decade/71605710/:116 117,https://en.wikipedia.org:443/wiki/Cycling_in_the_United_States:210 211 212,https://en.wikipedia.org:443/wiki/Boston_Red_Sox:2090 2091 2092 2093 2094 2095 2096 2097 2098 2099 2100 2101 2102 2103 2104 2105 2106 2107 2108 2109,https://en.wikipedia.org:443/wiki/Spectrum_Sports:180,https://en.wikipedia.org:443/wiki/Beach_volleyball:1005,https://en.wikipedia.org:443/wiki/Special_district_(United_States):262,https://www.nfl.com:443/standings/conference/2023/REG:123 124 125,https://en.wikipedia.org:443/wiki/Housing_in_the_United_States:206,https://en.wikipedia.org:443/wiki/Boston:2956 2957,https://en.wikipedia.org:443/wiki/New_England:1528,https://www.nytimes.com:443/news-event/israel-hamas-gaza:98 99,https://en.wikipedia.org:443/wiki/Ice_hockey:1077,https://en.wikipedia.org:443/wiki/Horse_racing_in_the_United_States:215,https://en.wikipedia.org:443/wiki/Bodybuilding_in_the_United_States:206,https://en.wikipedia.org:443/wiki/Architecture_of_the_United_States:1126 1127 1128 1129 1130 1131 1132 1133 1134 1135 1136 1137 1138 1139 1140,https://en.wikipedia.org:443/wiki/Fenway_Park:1839 1840 1841 1842 1843 1844 1845 1846 1847 1848 1849 1850 1851 1852 1853 1854 1855 1856 1857,https://en.wikipedia.org:443/wiki/National_Football_League:1155 1156 1157 1158 1159 1160 1161 1162 1163 1164 1165 1166 1167 1168 1169 1170 1171,https://en.wikipedia.org:443/wiki/Vietnam_War:2921 2922 2923,https://www.cnn.com:443/2020/09/26/politics/supreme-court-conservative/index.html:213,https://en.wikipedia.org:443/wiki/The_Washington_Post:1010 1011 1012 1013 1014 1015 1016,https://en.wikipedia.org:443/wiki/Culture_of_the_United_States:1799 1800 1801 1802 1803 1804 1805 1806,https://en.wikipedia.org:443/wiki/Northern_United_States:113,https://en.wikipedia.org:443/wiki/American_Revolution:2808 2809,https://en.wikipedia.org:443/wiki/New_England_Patriots:2345 2346 2347 2348 2349 2350,https://www.usatoday.com:443/for-subscribers/:43,https://en.wikipedia.org:443/wiki/2023_Big_Ten_Conference_football_season:839 840 841 842 843 844 845 846 847,https://en.wikipedia.org:443/wiki/Sports_in_Arizona:246 247 248,https://en.wikipedia.org:443/wiki/Cold_War:2965 2966 2967 2968,https://www.nfl.com:443/standings/:126 127 128,https://www.commanders.com:443/news/commanders-agree-to-trade-de-montez-sweat-to-chicago-bears:65 66 67,https://en.wikipedia.org:443/wiki/Colonial_history_of_the_United_States:2052,https://en.wikipedia.org:443/wiki/History_of_the_United_States_debt_ceiling:423,https://en.wikipedia.org:443/wiki/Terrorism_in_the_United_States:2499 2500 2501 2502 2503 2504 2505 2506 2507 2508 2509 2510 2511 2512 2513 2514 2515 2516,https://en.wikipedia.org:443/wiki/American_League:468 469 470 471 472 473 474 475 476 477,https://en.wikipedia.org:443/wiki/International_rankings_of_the_United_States:191,https://en.wikipedia.org:443/wiki/Agriculture_in_the_United_States:967 968,https://www.sportsbusinessjournal.com:443/Journal/Issues/2024/03/04.aspx:176,https://www.independent.co.uk:443/sport/us-sport/nba/draft-2020-what-time-start-uk-b1725070.html:109 110 111,https://www.nytimes.com:443/section/science?page=9:384,https://en.wikipedia.org:443/wiki/Louise_Suggs:264,https://en.wikipedia.org:443/wiki/United_States_Polo_Association:220,https://en.wikipedia.org:443/wiki/American_exceptionalism:1080,https://en.wikipedia.org:443/wiki/List_of_mountains_of_the_United_States:1211 1212,https://en.wikipedia.org:443/wiki/Constitution_of_the_United_States:1966 1967 1968 1969 1970 1971 1972 1973 1974,https://en.wikipedia.org:443/wiki/Supreme_Court_of_the_United_States:2469 2470 2471 2472 2473 2474 2475 2476,https://en.wikipedia.org:443/wiki/USA_Baseball:1212 1213 1214 1215,https://en.wikipedia.org:443/wiki/IndyCar_Series:1104,https://www.nfl.com:443/teams/indianapolis-colts/:108 109,https://en.wikipedia.org:443/wiki/Mayoralty_in_the_United_States:100 101 102 103 104 105 106 107 108 109 110 111,https://en.wikipedia.org:443/wiki/United_States_dollar:1079,https://en.wikipedia.org:443/wiki/Powers_of_the_president_of_the_United_States:449,https://en.wikipedia.org:443/wiki/Antisemitism_in_the_United_States:947,https://en.wikipedia.org:443/wiki/U.S._Immigration_and_Customs_Enforcement:901,https://en.wikipedia.org:443/wiki/Sports_in_the_United_States:787 788 789 790 791,https://www.nytimes.com:443/section/obituaries:86,https://www.nytimes.com:443/live/2024/01/19/world/israel-hamas-news/a-un-official-says-israeli-treatment-of-detainees-may-amount-to-torture?smid=url-share:495,https://www.nytimes.com:443/section/education:85 86 87 88,https://www.nfl.com:443/teams/seattle-seahawks/:104 105,https://meta.wikimedia.org:443/wiki/Category:United_States:94,https://en.wikipedia.org:443/wiki/WNBA%27s_Top_15_Team:108 109 110,https://www.businessinsider.com:443/real-estate:217 218,https://archive.curbed.com:443/2020/1/13/21026108/public-housing-faircloth-amendment-election-2020:122,https://en.wikipedia.org:443/wiki/History_of_the_United_States_(1849%E2%80%931865):811 812 813 814 815 816,https://en.wikipedia.org:443/wiki/MLS:1588 1589 1590 1591 1592 1593 1594 1595 1596 1597 1598 1599 1600 1601 1602 1603,https://en.wikipedia.org:443/wiki/Baseball:2136 2137 2138,https://www.nytimes.com:443/live/2024/05/04/us/college-campus-protests:512 513 514 515 516 517 518 519 520 521,https://www.nytimes.com:443/spotlight/graphics?page=10:417 418,https://www.nytimes.com:443/article/senate-races-2024-election.html:166,https://www.nfl.com:443/teams/baltimore-ravens/:121 122,https://en.wikipedia.org:443/wiki/United_States_Olympic_%26_Paralympic_Committee:616 617 618 619 620 621,https://en.wikipedia.org:443/wiki/Inter_Miami:1115 1116 1117,https://en.wikipedia.org:443/wiki/Soccer_in_the_United_States:1279 1280 1281 1282 1283 1284 1285 1286,https://www.nytimes.com:443/2024/05/03/climate/nasa-satellites-data.html:151,https://en.wikipedia.org:443/wiki/Category:Use_mdy_dates_from_October_2023:204,https://en.wikipedia.org:443/wiki/Great_Recession_in_the_United_States:874 875 876 877 878,https://en.wikipedia.org:443/wiki/National_League_(baseball):641 642 643 644 645 646 647 648 649 650 651 652 653 654 655 656 657 658 659 660 661 662 663 664 665 666,https://en.wikipedia.org:443/wiki/Volleyball:969 970,https://en.wikipedia.org:443/wiki/Columbia_(personification):408 409,https://en.wikipedia.org:443/wiki/Time_in_the_United_States:262 263 264 265,https://en.wikipedia.org:443/wiki/Indiana:1470 1471 1472 1473 1474 1475 1476 1477 1478 1479,https://en.wikipedia.org:443/wiki/Major_professional_sports_teams_of_the_United_States_and_Canada:349 350 351 352 353 354 355 356 357,https://www.nytimes.com:443/2009/01/05/opinion/05krugman.html:82,https://en.wikipedia.org:443/wiki/Drug_Enforcement_Administration:1013 1014,https://en.wikipedia.org:443/wiki/Fashion_in_the_United_States:256 257 258 259,https://en.wikipedia.org:443/wiki/Sports_in_Washington:742 743 744 745,https://en.wikipedia.org:443/wiki/List_of_current_United_States_district_judges:1718 1719 1720 1721 1722 1723 1724 1725 1726 1727 1728 1729 1730 1731 1732 1733 1734 1735 1736 1737 1738 1739 1740 1741 1742 1743 1744 1745 1746 1747 1748 1749 1750,https://en.wikipedia.org:443/wiki/Southern_United_States:2025 2026 2027 2028,https://en.wikipedia.org:443/wiki/Iroquois:2207 2208,https://en.wikipedia.org:443/wiki/Major_Arena_Soccer_League:448 449 450 451,https://www.usatoday.com:443/story/sports/mlb/2016/11/03/world-series-tv-television-ratings-chicago-cubs-cleveland-indians/93231896/:35 36 37,https://www.theguardian.com:443/sport/nhl:108 109 