chill chill-0 1727 https://cooking.nytimes.com:443/:623 624 625 626,https://en.wikipedia.org:443/wiki/Immigrant_health_care_in_the_United_States:843,https://www.azcentral.com:443/story/sports/nfl/cardinals/2015/09/06/nfls-dynasties-decade/71605710/:118,https://en.wikipedia.org:443/wiki/Ice_hockey:1081 1082 1083,https://www.nytimes.com:443/2024/04/24/podcasts/laufey-gen-zs-jazz-icon-sings-for-anxious-generation.html:289 290 291 292 293,https://cooking.nytimes.com:443/recipes/1022283-country-panzanella-with-watermelon-dressing:280,https://www.nytimes.com:443/2021/07/07/style/how-the-french-manicure-made-its-comeback.html:93 94,https://cooking.nytimes.com:443/topics/our-best-pasta-recipes:111 112,https://cooking.nytimes.com:443/recipes/1024760-chocolate-layer-cake:381 382 383 384 385 386 387 388 389 390,https://cooking.nytimes.com:443/christmas:209 210 211 212 213 214 215 216 217 218 219 220 221 222 223 224 225 226 227 228 229,https://www.nytimes.com:443/2024/05/03/opinion/campus-protests-israel-gaza.html:274,https://www.nytimes.com:443/section/politics:93,https://cooking.nytimes.com:443/recipes/1019333-millionaires-shortbread:289 290 291 292 293 294 295 296 297 298 299,https://www.nytimes.com:443/2024/05/03/world/europe/campus-protests-rorschach-test.html:207,https://en.wikipedia.org:443/wiki/History_of_the_United_States_(1849%E2%80%931865):822,https://cooking.nytimes.com:443/recipes/1013611-rhubarb-upside-down-cake:368 369 370 371,https://cooking.nytimes.com:443/recipes/1016295-mint-julep:272 273,https://www.nytimes.com:443/2024/05/03/books/cj-sansom-dead.html:118,https://cooking.nytimes.com:443/recipes/1018626-eggs-benedict:348 349,https://www.nytimes.com:443/interactive/2024/03/28/travel/things-to-do-mumbai.html:253 