classifi classifi-0 3712 https://en.wikipedia.org:443/wiki/War_in_Afghanistan_(2001%E2%80%932021):4295 4296 4297,https://en.wikipedia.org:443/wiki/USA_Baseball:1281,https://www.nytimes.com:443/section/jobs:64,https://en.wikipedia.org:443/wiki/Maternal_mortality_in_the_United_States:708,https://en.wikipedia.org:443/wiki/Independent_city_(United_States):272 273,https://www.usatoday.com:443/story/news/politics/2022/08/04/krysten-sinema-inflation-reduction-act-senator-democrats-vote/10234906002/:68,https://www.nytimes.com:443/spotlight/graphics?page=10:453,https://www.gallup.com:443/394505/indicator-life-evaluation-index.aspx:106 107,https://en.wikipedia.org:443/wiki/Indiana:1640,https://www.usatoday.com:443/story/sports/mlb/2016/11/03/world-series-tv-television-ratings-chicago-cubs-cleveland-indians/93231896/:41,https://en.wikipedia.org:443/wiki/Americans:2229 2230 2231 2232 2233,https://www.azcentral.com:443/story/sports/nfl/cardinals/2015/09/06/nfls-dynasties-decade/71605710/:121,https://www.nytimes.com:443/2014/11/11/technology/obama-net-neutrality-fcc.html:124,https://en.wikipedia.org:443/wiki/Beach_volleyball:1038,https://en.wikipedia.org:443/wiki/Prescription_drug_prices_in_the_United_States:785 786 787,https://en.wikipedia.org:443/wiki/Bureau_of_Diplomatic_Security:771 772 773 774 775 776,https://en.wikipedia.org:443/wiki/United_States_Public_Health_Service_Commissioned_Corps:354,https://advertising.nytimes.com:443/:43,https://en.wikipedia.org:443/wiki/Olympic_Games:2085,https://www.nytimes.com:443/interactive/2024/nyregion/trump-manhattan-criminal-trial-witnesses.html:104,https://en.wikipedia.org:443/wiki/Vietnam_War:3235,https://www.nytimes.com:443/spotlight/visual-investigations:322,https://www.nytimes.com:443/2024/05/01/us/free-speech-campus-protests.html:164,https://en.wikipedia.org:443/wiki/Drug_Enforcement_Administration:1103,https://en.wikipedia.org:443/wiki/Terrorism_in_the_United_States:2716 2717,https://en.wikipedia.org:443/wiki/Antisemitism_in_the_United_States:1000 1001,https://www.usatoday.com:443/for-subscribers/:46,https://en.wikipedia.org:443/wiki/American_Sign_Language:1280 1281 1282 1283 1284 1285 1286 1287,https://www.usatoday.com:443/story/sports/mlb/2013/08/11/fox-sports-1-versus-espn/2641247/:173,https://en.wikipedia.org:443/wiki/Southern_United_States:2250 2251,https://en.wikipedia.org:443/wiki/Federal_tribunals_in_the_United_States:313,https://www.usatoday.com:443/news/nation/:53,https://www.nytimes.com:443/2024/05/03/world/europe/campus-protests-rorschach-test.html:223,https://en.wikipedia.org:443/wiki/National_Reconnaissance_Office:781 782 783 784 785 786 787 788 789 790 791 792 793 794 795,https://www.usatoday.com:443/story/sports/winter-olympics-2018/2018/02/13/medalists-2018-winter-olympics-get-precious-keepsake-and-medal/332267002/:41,https://www.nytimes.com:443/2022/02/11/sports/horse-racing/medina-spirit-kentucky-derby-necropsy.html?searchResultPosition=2:119,https://www.usatoday.com:443/story/sports/soccer/2017/02/02/nwsl-matches-will-be-shown-on-lifetime-each-saturday/97394336/:58,https://en.wikipedia.org:443/wiki/Powers_of_the_president_of_the_United_States:506,https://en.wikipedia.org:443/wiki/Literacy_in_the_United_States:942 943,https://www.thetimes.co.uk:443/article/susan-hall-tory-mayoral-candidate-liked-tweet-praising-enoch-powell-zqsr6lvfk:49,https://en.wikipedia.org:443/wiki/Tribal_sovereignty_in_the_United_States:716,https://en.wikipedia.org:443/wiki/History_of_the_United_States_(2008%E2%80%93present):1983 1984 1985 1986,https://www.nytimes.com:443/live/2024/05/04/world/israel-gaza-war-hamas:284,https://en.wikipedia.org:443/wiki/Special_district_(United_States):285 286 287,https://en.wikipedia.org:443/wiki/Volleyball:998 