classroom classroom-0 1872 https://www.pbs.org:443/wgbh/americanexperience/features/klansville-faq/:173 174,https://en.wikipedia.org:443/wiki/Literacy_in_the_United_States:944 945 946,https://en.wikipedia.org:443/wiki/Terrorism_in_the_United_States:2720,https://www.gallup.com:443/corporate/468077/media-center.aspx:63 64,https://en.wikipedia.org:443/wiki/College_athletics_in_the_United_States:930,https://en.wikipedia.org:443/wiki/Drug_Enforcement_Administration:1104,https://www.nytimes.com:443/column/out-there:38,https://www.nytimes.com:443/section/opinion/letters:41,https://www.gallup.com:443/corporate/216134/media-inquiries.aspx:50 51,https://en.wikipedia.org:443/wiki/Constitution_of_the_United_States:2159 2160 2161 2162 2163 2164 2165 2166 2167 2168 2169 2170 2171 2172 2173 2174 2175 2176 2177 2178 2179 2180 2181 2182 2183,https://www.nytimes.com:443/section/learning:75 76 77 78,https://www.nytimes.com:443/section/opinion?page=5:163,https://www.nytimes.com:443/2024/04/29/learning/what-should-be-done-about-the-gender-pay-gap-in-sports.html:117 118,https://news.gallup.com:443/topic/retirement.aspx:96 97,https://news.gallup.com:443/poll/224864/football-americans-favorite-sport-watch.aspx:151 152,https://www.nytimes.com:443/2024/05/02/arts/design/petrit-halilaj-kosovo-met-roof.html:195 196 197 198,https://www.sportsbusinessjournal.com:443/Subscribe/Subscription-Landing.aspx:188,https://news.gallup.com:443/vault/203270/gallup-vault-football-rise-spectator-sport.aspx:95 96,https://www.azcentral.com:443/story/sports/nfl/cardinals/2015/09/06/nfls-dynasties-decade/71605710/:122,https://www.gallup.com:443/394505/indicator-life-evaluation-index.aspx:108 109,https://www.nytimes.com:443/2024/05/03/books/cj-sansom-dead.html:127,https://en.wikipedia.org:443/wiki/Education_in_the_United_States:1637 1638 1639 1640 1641 1642 1643,https://en.wikipedia.org:443/wiki/Sports_in_Yemen:227 