cleveland cleveland-0 4803 https://www.nfl.com:443/teams/philadelphia-eagles/:119 120,https://www.nytimes.com:443/section/science?page=9:423,https://en.wikipedia.org:443/wiki/Indiana:1647 1648,https://en.wikipedia.org:443/wiki/War_in_Afghanistan_(2001%E2%80%932021):4312,https://www.azcentral.com:443/story/sports/nfl/cardinals/2015/09/06/nfls-dynasties-decade/71605710/:123 124,https://en.wikipedia.org:443/wiki/Americans:2239,https://en.wikipedia.org:443/wiki/List_of_current_United_States_district_judges:2047 2048 2049 2050 2051 2052 2053 2054 2055 2056 2057,https://en.wikipedia.org:443/wiki/Supreme_Court_of_the_United_States:2893 2894,https://en.wikipedia.org:443/wiki/Fenway_Park:1956 1957 1958 1959 1960 1961 1962 1963 1964 1965 1966 1967 1968 1969 1970 1971 1972,https://en.wikipedia.org:443/wiki/Inter_Miami:1221,https://en.wikipedia.org:443/wiki/American_League:508 509 510 511 512 513 514 515 516 517 518 519 520 521 522 523,https://en.wikipedia.org:443/wiki/United_States_Public_Health_Service_Commissioned_Corps:355,https://en.wikipedia.org:443/wiki/National_Football_League:1228 1229 1230 1231 1232 1233 1234 1235 1236 1237 1238 1239 1240,https://en.wikipedia.org:443/wiki/Speaker_of_the_United_States_House_of_Representatives:731 732,https://www.themarshallproject.org:443/2022/06/14/what-did-fbi-data-say-about-crime-in-2021-it-s-too-unreliable-to-tell:136,https://en.wikipedia.org:443/wiki/Democratic_Party_(United_States):2157 2158 2159 2160 2161 2162 2163 2164 2165 2166 2167 2168 2169 2170 2171,https://en.wikipedia.org:443/wiki/List_of_mountain_peaks_of_the_United_States:767 768 769 770 771 772 773 774 775,https://en.wikipedia.org:443/wiki/List_of_mountains_of_the_United_States:1294 1295 1296 1297 1298 1299 1300 1301,https://en.wikipedia.org:443/wiki/Iroquois:2463 2464,https://www.nfl.com:443/teams/indianapolis-colts/:120 121,https://www.usatoday.com:443/story/sports/mlb/2016/11/03/world-series-tv-television-ratings-chicago-cubs-cleveland-indians/93231896/:42 43,https://en.wikipedia.org:443/wiki/NBA:1362 1363 1364 1365 1366 1367 1368 1369 1370 1371 1372 1373,https://en.wikipedia.org:443/wiki/History_of_the_United_States_(1849%E2%80%931865):944,https://en.wikipedia.org:443/wiki/Northern_United_States:128,https://en.wikipedia.org:443/wiki/New_England_Patriots:2440 2441 2442 2443 2444,https://en.wikipedia.org:443/wiki/Baseball:2220,https://en.wikipedia.org:443/wiki/Boston:3401 3402,https://www.independent.co.uk:443/sport/us-sport/nba/draft-2020-what-time-start-uk-b1725070.html:120 121 122 123,https://en.wikipedia.org:443/wiki/Boston_Red_Sox:2217 2218 2219 2220 2221 2222 2223 2224 2225 2226 2227 2228 2229,https://en.wikipedia.org:443/wiki/Terrorism_in_the_United_States:2731 2732,https://www.nfl.com:443/teams/seattle-seahawks/:118 119,https://en.wikipedia.org:443/wiki/Time_in_the_United_States:283,https://en.wikipedia.org:443/wiki/Consolidated_city-county:673 674,https://en.wikipedia.org:443/wiki/MLB_Network:820,https://www.nfl.com:443/standings/:143 144 145,https://en.wikipedia.org:443/wiki/Outline_of_the_history_of_the_United_States:836 837 838 839,https://en.wikipedia.org:443/wiki/Major_professional_sports_teams_of_the_United_States_and_Canada:399 400 401 402 403 404 405 406 407 408 409 410,https://www.sbnation.com:443/2014/10/5/6916597/nba-new-tv-deal-espn-turner-24-billion:136 137 138,https://en.wikipedia.org:443/wiki/Spectrum_Sports:199 200,http://www.redsoxdiehard.com:80/players/unifnums.html:795 796,https://en.wikipedia.org:443/wiki/Sports_in_the_United_States:847,https://en.wikipedia.org:443/wiki/Fox_Sports_1:806,https://en.wikipedia.org:443/wiki/Spanish%E2%80%93American_War:2717,https://en.wikipedia.org:443/wiki/United_States_Declaration_of_Independence:1566 1567,https://en.wikipedia.org:443/wiki/Associate_Justice_of_the_Supreme_Court_of_the_United_States:556 557,https://en.wikipedia.org:443/wiki/Major_Arena_Soccer_League:503 504,https://en.wikipedia.org:443/wiki/National_League_(baseball):735 736 737 738 739 740 741,https://en.wikipedia.org:443/wiki/United_States_men%27s_national_soccer_team:1382,https://www.nfl.com:443/standings/conference/2023/REG:140 141 142,https://en.wikipedia.org:443/wiki/USA_Baseball:1291,https://en.wikipedia.org:443/wiki/Sports_in_Washington:796,https://www.nfl.com:443/teams/baltimore-ravens/:134 135,https://en.wikipedia.org:443/wiki/2023_Big_Ten_Conference_football_season:895 896 897 898 899 900 901 902 903 904,https://en.wikipedia.org:443/wiki/MLS:1735 1736 1737,https://en.wikipedia.org:443/wiki/Sports_in_Kentucky:715 716,https://en.wikipedia.org:443/wiki/Sports_in_Arizona:257 258,https://en.wikipedia.org:443/wiki/United_States_federal_civil_service:423,https://millercenter.org:443/president/adams/essays/clay-1825-secretary-of-state:123 124,https://en.wikipedia.org:443/wiki/Agriculture_in_the_United_States:1062 