coldest coldest-0 233 https://en.wikipedia.org:443/wiki/Boston:3475,https://en.wikipedia.org:443/wiki/Environmental_issues_in_the_United_States:635 636,https://www.azcentral.com:443/story/sports/nfl/cardinals/2015/09/06/nfls-dynasties-decade/71605710/:131 