condit condit-0 11289 https://www.nfl.com:443/teams/indianapolis-colts/:144 145,https://www.independent.co.uk:443/sport/us-sport/nba/draft-2020-what-time-start-uk-b1725070.html:143,https://en.wikipedia.org:443/wiki/Snowboarding:773,https://www.theguardian.com:443/us-news/2020/aug/25/qanon-conspiracy-theory-explained-trump-what-is:208,https://en.wikipedia.org:443/wiki/History_of_the_United_States_(1849%E2%80%931865):1070 1071 1072 1073,https://en.wikipedia.org:443/wiki/National_Boxing_Association:746 747,https://nytlicensing.com:443/timesdigest/:149,https://www.usatoday.com:443/story/sports/winter-olympics-2018/2018/02/13/medalists-2018-winter-olympics-get-precious-keepsake-and-medal/332267002/:49,https://en.wikipedia.org:443/wiki/Henley_Royal_Regatta:700 701,https://www.nfl.com:443/standings/:164 165,https://en.wikipedia.org:443/wiki/Inter_Miami:1464 1465,https://www.nytimes.com:443/section/health?page=7:381,https://en.wikipedia.org:443/wiki/West_Coast_of_the_United_States:733,https://bolavip.com:443/en/info/terms-conditions:121 122 123 124 125 126 127 128 129 130 131 132 133,https://www.ft.com:443/content/03cc24ca-dc69-4bd6-8f2d-7509b0f6b6f1:247,https://nirsa.net:443/nirsa/:72,https://www.azcentral.com:443/story/sports/nfl/cardinals/2015/09/06/nfls-dynasties-decade/71605710/:134 135,https://www.nytimes.com:443/trending/:103 104,https://www.usatoday.com:443/story/sports/soccer/2017/02/02/nwsl-matches-will-be-shown-on-lifetime-each-saturday/97394336/:62,https://ww2.arb.ca.gov:443/our-work/programs/low-carbon-fuel-standard/about:116,https://www.law.cornell.edu:443/supremecourt/text/74/700:1023 1024 1025 1026 1027 1028,https://www.nytimes.com:443/2024/05/04/us/politics/biden-insulin-voters-drugs.html:172,https://en.wikipedia.org:443/wiki/Environmental_issues_in_the_United_States:676 677,https://www.nytimes.com:443/live/2024/01/19/world/israel-hamas-news/a-un-official-says-israeli-treatment-of-detainees-may-amount-to-torture?smid=url-share:596 597 598 599 600,https://archive.curbed.com:443/2020/1/13/21026108/public-housing-faircloth-amendment-election-2020:155,https://theconversation.com:443/the-rise-and-rise-of-ultimate-fighting-and-why-boxing-is-now-so-passe-55910:112,https://www.nytimes.com:443/2024/05/04/us/kentucky-derby-race-photos.html:74,https://en.wikipedia.org:443/wiki/Americans:2378,https://en.wikipedia.org:443/wiki/Sports_in_Syria:353,https://www.nytimes.com:443/2024/05/02/opinion/israel-saudi-arabia.html:201,https://en.wikipedia.org:443/wiki/U.S._Immigration_and_Customs_Enforcement:1121 1122,https://www.nytimes.com:443/section/well:117,https://www.theguardian.com:443/sport/nhl:126,https://en.wikipedia.org:443/wiki/Perpetual_Union:606 607,https://www.nytimes.com:443/section/science?page=9:474,https://www.nytimes.com:443/live/2024/05/04/world/israel-gaza-war-hamas:304 305 306,https://en.wikipedia.org:443/wiki/Race_and_maternal_health_in_the_United_States:748 749 750 751 752 753,https://en.wikipedia.org:443/wiki/Forbes:414,https://www.usatoday.com:443/news/nation/:57,https://www.nytimes.com:443/section/opinion?page=5:188,https://www.nytimes.com:443/spotlight/nytimesineducation:240,https://www.nytimes.com:443/2024/05/02/us/blast-mortar-brain-injury-military.html:245,https://www.nfl.com:443/standings/conference/2023/REG:161 162,https://www.nytimes.com:443/2024/05/04/opinion/chronic-illness-vaccines-long-covid.html:105 106,https://www.nytimes.com:443/2022/02/11/sports/horse-racing/medina-spirit-kentucky-derby-necropsy.html?searchResultPosition=2:138,https://www.telegraph.co.uk:443/news/worldnews/asia/afghanistan/8693247/Secret-peace-talks-between-US-and-Taliban-collapse-over-leaks.html:112 113 114,https://en.wikipedia.org:443/wiki/U.S._state:914 915,https://en.wikipedia.org:443/wiki/Agriculture_in_the_United_States:1207 1208 1209 1210,https://www.theguardian.com:443/us-news/2019/dec/29/synagogue-stabbings-three-hurt-in-monsey-attack-say-reports:112 113,https://en.wikipedia.org:443/wiki/History_of_the_United_States_(2008%E2%80%93present):2232,https://web3.ncaa.org:443/directory/:7,https://www.nytimes.com:443/section/obituaries:107,https://www.theguardian.com:443/world/2001/oct/27/afghanistan.terrorism6:146,https://en.wikipedia.org:443/wiki/Prescription_drug_prices_in_the_United_States:976,https://en.wikipedia.org:443/wiki/Cable_television:1026,https://en.wikipedia.org:443/wiki/United_States_Public_Health_Service_Commissioned_Corps:536,https://www.tlc.com:443/inside-tlc/TLC-Casting:201 202 203 204,https://www.nfl.com:443/teams/philadelphia-eagles/:132 133,https://en.wikipedia.org:443/wiki/War_in_Afghanistan_(2001%E2%80%932021):4609 4610 4611 4612 4613,https://en.wikipedia.org:443/wiki/Iroquois:2748,https://news.gallup.com:443/vault/203270/gallup-vault-football-rise-spectator-sport.aspx:114,https://en.wikipedia.org:443/wiki/Summer_Olympic_Games:1070,https://en.wikipedia.org:443/wiki/Constitution_of_the_United_States:2470 2471 2472 2473,https://www.independent.co.uk:443/tv/travel-smart:210,https://en.wikipedia.org:443/wiki/Cold_War:3944 3945 3946,https://www.theguardian.com:443/info/privacy:25,https://www.usatoday.com:443/for-subscribers/:51,https://www.nytimes.com:443/2009/01/05/opinion/05krugman.html:89 90,https://en.wikipedia.org:443/wiki/National_League_(baseball):844,https://en.wikipedia.org:443/wiki/Colonial_history_of_the_United_States:2998 2999 3000 3001 3002 3003,https://en.wikipedia.org:443/wiki/United_States_men%27s_national_soccer_team:1678 1679 1680 1681 1682,https://www.businessinsider.com:443/guides/tech:257 258,https://en.wikipedia.org:443/wiki/Jack_Nicklaus:1614 1615 1616 1617 1618 1619 1620 1621 1622 1623,https://www.nytimes.com:443/live/2024/05/04/us/college-campus-protests:666,https://www.usatoday.com:443/story/news/politics/2022/08/04/krysten-sinema-inflation-reduction-act-senator-democrats-vote/10234906002/:77,https://www.usatoday.com:443/story/sports/mlb/2013/08/11/fox-sports-1-versus-espn/2641247/:198,https://en.wikipedia.org:443/wiki/Rugby_union_at_the_Summer_Olympics:344,https://en.wikipedia.org:443/wiki/American_Revolution:3486 3487,https://en.wikipedia.org:443/wiki/Timeline_of_United_States_inventions_(after_1991):533 534,https://en.wikipedia.org:443/wiki/United_States_Declaration_of_Independence:1819 1820 1821 1822 1823 1824,https://en.wikipedia.org:443/wiki/Antisemitism_in_the_United_States:1093,https://en.wikipedia.org:443/wiki/Olympic_Games:2410,https://www.theguardian.com:443/us/soccer:187,https://www.thetimes.co.uk:443/article/susan-hall-tory-mayoral-candidate-liked-tweet-praising-enoch-powell-zqsr6lvfk:63,https://www.saturdaydownsouth.com:443/sports/ranking-top-25-rivalries-college-sports-2023/:357 358 359 360,https://www.theguardian.com:443/sport/2004/jul/27/cricket.comment:154,https://www.theguardian.com:443/sport/2018/jan/23/aly-raisman-olympic-committee-larry-nassar-abuse-case:99,https://en.wikipedia.org:443/wiki/Hawaiian_home_land:156,https://en.wikipedia.org:443/wiki/United_States_dollar:1455,https://www.nytimes.com:443/2024/04/22/us/politics/israel-gaza-hamas-war.html:243 244,https://www.bbc.co.uk:443/news/world-asia-35169478:208,https://en.wikipedia.org:443/wiki/Beach_volleyball:1154 1155 1156 1157,https://www.nytimes.com:443/section/health:146,https://spoiler.bolavip.com:443/en/celebrities/ryan-gosling-net-worth:100 101 102 103,https://en.wikipedia.org:443/wiki/MLS:2004,https://en.wikipedia.org:443/wiki/Southern_United_States:2524 2525,https://www.nytimes.com:443/section/business:105,https://www.theguardian.com:443/sport/2017/aug/19/will-mcgregor-v-mayweather-save-american-boxing-or-bury-it?CMP=share_btn_link:316 317,https://www.theguardian.com:443/uk/2010/may/04/sainsburys-sponsors-paralympic-games:68,https://www.nytimes.com:443/section/opinion/letters:51,https://www.nytimes.com:443/2024/05/04/opinion/alexandria-ocasio-cortez.html:237,https://nytlicensing.com:443/content/harvard-health-publishing/:325 326 327 328 329,https://en.wikipedia.org:443/wiki/Education_in_the_United_States:2003 2004 2005 2006,https://www.nfl.com:443/teams/baltimore-ravens/:148 149,https://www.cnn.com:443/2020/08/24/politics/muslim-ice-detainees-pork-meals/index.html:194,https://en.wikipedia.org:443/wiki/Powers_of_the_president_of_the_United_States:601,https://en.wikipedia.org:443/wiki/College_athletics_in_the_United_States:1282 1283,https://en.wikipedia.org:443/wiki/History_of_the_United_States_(1945%E2%80%931964):1729 1730 1731 1732,https://en.wikipedia.org:443/wiki/Wikipedia:File_upload_wizard:263,https://www.independent.co.uk:443/extras/indybest/house-garden:222,https://en.wikipedia.org:443/wiki/United_States_federal_civil_service:486 487 488,https://theconversation.com:443/es:236,https://en.wikipedia.org:443/wiki/MLB_Network:941,https://bolavip.com:443/en:159 160 161 162,https://en.wikipedia.org:443/wiki/Vietnam_War:3602 3603 3604,https://en.wikipedia.org:443/wiki/New_England_Patriots:2772 2773 2774 2775 2776,https://en.wikipedia.org:443/wiki/Greenhouse_gas_emissions_by_the_United_States:789,https://www.nytimes.com:443/2024/04/24/us/palestinian-family-gaza-war-death.html:354,https://en.wikipedia.org:443/wiki/Supreme_Court_of_the_United_States:3169,https://en.wikipedia.org:443/wiki/United_States_Polo_Association:285,https://nces.ed.gov:443/blogs/nces/post/where-can-i-find-information-about-the-condition-of-education-in-the-united-states:71 72 73 74 75 76 77 78 79 80 81 82 83,https://en.wikipedia.org:443/wiki/Baseball:2377 2378,https://www.usatoday.com:443/story/sports/mlb/2016/11/03/world-series-tv-television-ratings-chicago-cubs-cleveland-indians/93231896/:44,https://en.wikipedia.org:443/wiki/Literacy_in_the_United_States:1101 1102 1103 1104 1105 1106,https://bolavip.com:443/en/info/privacy:166 167 168 169 170 171 172 173 174,https://en.wikipedia.org:443/wiki/Bodybuilding_in_the_United_States:244,https://en.wikipedia.org:443/wiki/Tribal_sovereignty_in_the_United_States:806,https://www.theguardian.com:443/type/video+tone/comment:86,https://www.commanders.com:443/news/commanders-agree-to-trade-de-montez-sweat-to-chicago-bears:119,https://en.wikipedia.org:443/wiki/Immigrant_health_care_in_the_United_States:1036 1037 1038 1039 1040 1041 1042 1043 1044 1045 1046 1047 1048 1049 1050 1051 1052 1053,https://www.nytimes.com:443/2024/05/02/business/horse-racing-deaths-kentucky-derby.html:246,https://www.nytimes.com:443/2024/05/04/opinion/fat-activist-freedom-health.html:145,https://en.wikipedia.org:443/wiki/Boston:3740 3741,https://en.wikipedia.org:443/wiki/File:Wiki_letter_w_cropped.svg:168,https://www.independent.co.uk:443/competitions:58,https://www.nytimes.com:443/2024/05/04/opinion/trump-second-term-illiberalism.html:202,https://en.wikipedia.org:443/wiki/IndyCar_Series:1267 1268 1269,https://nytlicensing.com:443/:198,https://www.nfl.com:443/teams/seattle-seahawks/:131 132,https://www.nytimes.com:443/2024/05/04/world/europe/russia-soldiers-women.html:183,https://nytlicensing.com:443/magazines/:198,https://nytlicensing.com:443/license-our-content/:136,https://www.nytimes.com:443/2024/04/14/fashion/vintage-watches-reissued.html:126,https://en.wikipedia.org:443/wiki/Maternal_mortality_in_the_United_States:818 819 820 821 822 823 824 825 826,https://en.wikipedia.org:443/wiki/Spanish%E2%80%93American_War:3038,https://en.wikipedia.org:443/wiki/Drug_Enforcement_Administration:1213 1214 