connor connor-0 1930 https://en.wikipedia.org:443/wiki/Jack_Nicklaus:1638 1639,https://en.wikipedia.org:443/wiki/Race_and_maternal_health_in_the_United_States:759,https://en.wikipedia.org:443/wiki/Southern_United_States:2624 2625 2626,https://en.wikipedia.org:443/wiki/History_of_the_United_States_(1945%E2%80%931964):1787 1788,https://www.azcentral.com:443/story/sports/nfl/cardinals/2015/09/06/nfls-dynasties-decade/71605710/:136,https://www.nytimes.com:443/video/last-word:222 223 224 225 226 227 228 229 230 231 232 233 234 235 236 237 238 239 240 241 242 243 244 245 246 247 248 249 250 251,https://en.wikipedia.org:443/wiki/Associate_Justice_of_the_Supreme_Court_of_the_United_States:605 606 607,https://en.wikipedia.org:443/wiki/Constitution_of_the_United_States:2720 2721,https://en.wikipedia.org:443/wiki/List_of_current_United_States_district_judges:2327 2328,https://www.saturdaydownsouth.com:443/sports/ranking-top-25-rivalries-college-sports-2023/:367 368 369 370 371 372 373 374 375 376 377 378 379,https://www.nytimes.com:443/section/obituaries:113,https://en.wikipedia.org:443/wiki/Baseball:2402,https://en.wikipedia.org:443/wiki/United_States_Reports:145,https://www.theguardian.com:443/sport/nhl:129 130,https://en.wikipedia.org:443/wiki/United_States_men%27s_national_soccer_team:1717,https://en.wikipedia.org:443/wiki/Supreme_Court_of_the_United_States:3323 3324 3325 3326 3327 3328 3329 3330 3331 3332 3333 3334 3335 3336,https://en.wikipedia.org:443/wiki/Boston_Red_Sox:2462,https://en.wikipedia.org:443/wiki/Boston:3772,https://en.wikipedia.org:443/wiki/2023_Big_Ten_Conference_football_season:1086 1087 1088,https://en.wikipedia.org:443/wiki/Inter_Miami:1482,https://www.theguardian.com:443/us/soccer:189,https://www.cnn.com:443/2020/09/26/politics/supreme-court-conservative/index.html:319,http://www.redsoxdiehard.com:80/players/unifnums.html:1040 1041 1042,https://en.wikipedia.org:443/wiki/Spanish%E2%80%93American_War:3129 