consecut consecut-0 3432 https://en.wikipedia.org:443/wiki/Sports_in_Washington:956 957,https://en.wikipedia.org:443/wiki/Speaker_of_the_United_States_House_of_Representatives:944,https://en.wikipedia.org:443/wiki/Soccer_in_the_United_States:1649,https://en.wikipedia.org:443/wiki/Constitution_of_the_United_States:2722,https://en.wikipedia.org:443/wiki/Boston_Red_Sox:2463 2464 2465 2466,https://en.wikipedia.org:443/wiki/Great_Recession_in_the_United_States:1030 1031 1032,https://www.azcentral.com:443/story/sports/nfl/cardinals/2015/09/06/nfls-dynasties-decade/71605710/:137,https://en.wikipedia.org:443/wiki/Sports_in_Armenia:676,https://www.cbo.gov:443/publication/53348:49,https://www.nytimes.com:443/interactive/2018/08/25/opinion/sunday/student-debt-loan-default-college.html:87,https://en.wikipedia.org:443/wiki/Sports_in_Samoa:295,https://en.wikipedia.org:443/wiki/USA_Baseball:1553 1554 1555,https://en.wikipedia.org:443/wiki/College_basketball:1690 1691 1692,https://en.wikipedia.org:443/wiki/History_of_the_United_States_(2008%E2%80%93present):2310,https://en.wikipedia.org:443/wiki/War_in_Afghanistan_(2001%E2%80%932021):4730,https://en.wikipedia.org:443/wiki/Indiana:1912 1913 1914,https://en.wikipedia.org:443/wiki/Sports_in_Venezuela:519,https://en.wikipedia.org:443/wiki/Prescription_drug_prices_in_the_United_States:998,https://en.wikipedia.org:443/wiki/Sports_in_Uzbekistan:169,https://en.wikipedia.org:443/wiki/U.S._Immigration_and_Customs_Enforcement:1142,https://en.wikipedia.org:443/wiki/New_England_Patriots:2805 2806 2807 2808 2809 2810 2811 2812,https://en.wikipedia.org:443/wiki/Summer_Olympic_Games:1077,https://en.wikipedia.org:443/wiki/NBA:1550 1551 1552 1553 1554,https://en.wikipedia.org:443/wiki/Sports_in_Poland:461,https://bolavip.com:443/en:165 166,https://www.patriots.com:443/news/ben-coates-elected-to-patriots-hall-of-fame-140866:291 292,https://en.wikipedia.org:443/wiki/National_Football_League:1508 1509 1510,https://en.wikipedia.org:443/wiki/Sports_in_India:3216 3217,https://en.wikipedia.org:443/wiki/Sports_in_Finland:532,https://en.wikipedia.org:443/wiki/Comparison_of_U.S._state_and_territory_governments:278 279 280 281 282 283 284 285 286 287 288 289 290 291 292,https://en.wikipedia.org:443/wiki/Sports_in_Kentucky:859,https://en.wikipedia.org:443/wiki/Sports_in_American_Samoa:256,https://www.indycar.com:443/news/2022/02/02-22-internationaltv:95,https://en.wikipedia.org:443/wiki/Volleyball:1096 1097 1098,https://en.wikipedia.org:443/wiki/United_States_men%27s_national_soccer_team:1722 1723 1724,https://en.wikipedia.org:443/wiki/Ice_hockey:1267,https://en.wikipedia.org:443/wiki/2023_Big_Ten_Conference_football_season:1089 1090,https://en.wikipedia.org:443/wiki/Carlos_Bocanegra:687,https://en.wikipedia.org:443/wiki/IndyCar_Series:1294,https://www.nytimes.com:443/2024/05/04/world/europe/sadiq-khan-london-mayor-results.html:126,https://en.wikipedia.org:443/wiki/Beach_volleyball:1183 1184 1185,https://en.wikipedia.org:443/wiki/Sports_in_the_United_States:994,https://en.wikipedia.org:443/wiki/Sports_in_France:451 452 453 454,https://en.wikipedia.org:443/wiki/Democratic_Party_(United_States):2540,https://en.wikipedia.org:443/wiki/Sports_in_South_Korea:366 367 368,https://en.wikipedia.org:443/wiki/Jack_Nicklaus:1640 1641 1642 1643 1644 1645 1646 1647 1648 1649 1650 1651,https://en.wikipedia.org:443/wiki/Sports_in_Estonia:322,https://en.wikipedia.org:443/wiki/Fenway_Park:2181 2182 2183 2184 