contributor contributor-0 2160 https://www.nytimes.com:443/by/pamela-paul:89,https://cooking.nytimes.com:443/about-us:158 159,https://en.wikipedia.org:443/wiki/Category:Use_mdy_dates_from_October_2023:230,https://www.azcentral.com:443/story/sports/nfl/cardinals/2015/09/06/nfls-dynasties-decade/71605710/:140 141,https://en.wikipedia.org:443/wiki/Boston:3832,https://www.nytimes.com:443/section/world:236,https://en.wikipedia.org:443/wiki/New_England_Patriots:2845 2846 2847 2848 2849 2850 2851,https://en.wikipedia.org:443/wiki/U.S._Immigration_and_Customs_Enforcement:1188,https://www.independent.co.uk:443/extras/indybest/house-garden:226,https://www.nytimes.com:443/section/travel:133,https://www.nytimes.com:443/section/food:103,https://arxiv.org:443/abs/1607.04484:112,https://www.forbes.com:443/sites/zachslaton/2012/10/15/how-the-mls-playoff-format-punishes-ambitious-teams/:164 165,https://en.wikipedia.org:443/wiki/The_Washington_Post:1290,https://www.independent.co.uk:443/competitions:62,https://en.wikipedia.org:443/wiki/USA_Baseball:1591,https://en.wikipedia.org:443/wiki/Environmental_issues_in_the_United_States:736 737 738,https://www.nytimes.com:443/2005/09/18/opinion/conventional-wisdom.html:117 118,https://www.nytimes.com:443/section/science?page=9:493,https://en.wikipedia.org:443/wiki/Maternal_mortality_in_the_United_States:879,https://www.independent.co.uk:443/sport/us-sport/nba/draft-2020-what-time-start-uk-b1725070.html:152,https://www.dandc.eu:443/en/article/dangers-us-administration-negotiating-taliban-without-involving-afghan-government:113 114,https://www.independent.co.uk:443/tv/travel-smart:228,https://en.wikipedia.org:443/wiki/Fox_Sports_1:933 934,https://www.nytimes.com:443/section/t-magazine:181,https://www.forbes.com:443/sites/greatspeculations/2019/09/22/a-strange-new-world-economic-slowdown-liquidity-issues/:159 160 161 162 163,https://ww2.arb.ca.gov:443/our-work/programs/low-carbon-fuel-standard/about:125,https://stmarysmusings.sbnation.com:443/:145,https://www.nytimes.com:443/section/science:158,https://en.wikipedia.org:443/wiki/NBA:1594 1595 1596 1597 1598 1599,https://en.wikipedia.org:443/wiki/Forbes:438 439 440 441 442 443 444 445 