cowboi cowboi-0 2695 https://en.wikipedia.org:443/wiki/National_League_(baseball):910,https://en.wikipedia.org:443/wiki/National_Football_League:1600 1601 1602 1603 1604 1605,https://www.patriots.com:443/news/check-out-the-2016-patriots-color-rush-jerseys-270621:246,https://en.wikipedia.org:443/wiki/Sports_in_the_United_States:1080,https://en.wikipedia.org:443/wiki/Architecture_of_the_United_States:1611,https://en.wikipedia.org:443/wiki/Fox_Sports_1:1001 1002,https://en.wikipedia.org:443/wiki/Ice_hockey:1357,https://en.wikipedia.org:443/wiki/Fenway_Park:2303 2304 2305 2306 2307,https://www.nytimes.com:443/section/fashion?page=9:493 494,https://en.wikipedia.org:443/wiki/MLB_Network:1010 1011,https://en.wikipedia.org:443/wiki/Soccer_in_the_United_States:1768,https://www.nytimes.com:443/section/fashion:224 225,https://www.theguardian.com:443/sport/2017/aug/19/will-mcgregor-v-mayweather-save-american-boxing-or-bury-it?CMP=share_btn_link:359,https://www.nfl.com:443/teams/baltimore-ravens/:156 157,https://en.wikipedia.org:443/wiki/Baseball:2497,https://www.nfl.com:443/teams/indianapolis-colts/:151 152,https://en.wikipedia.org:443/wiki/2023_Big_Ten_Conference_football_season:1136,https://www.nytimes.com:443/by/emily-cochrane:98 99,https://www.azcentral.com:443/story/sports/nfl/cardinals/2015/09/06/nfls-dynasties-decade/71605710/:143 144 145 146 147 148,https://en.wikipedia.org:443/wiki/List_of_mountains_of_the_United_States:1587,https://en.wikipedia.org:443/wiki/History_of_the_United_States_(1945%E2%80%931964):1979,https://www.nfl.com:443/standings/:192 193 194 195,https://www.nfl.com:443/teams/seattle-seahawks/:138 139,https://en.wikipedia.org:443/wiki/Fashion_in_the_United_States:449 450,https://en.wikipedia.org:443/wiki/NBA:1656,https://www.nfl.com:443/teams/philadelphia-eagles/:140 141 142,https://en.wikipedia.org:443/wiki/Volleyball:1272,https://en.wikipedia.org:443/wiki/Major_professional_sports_teams_of_the_United_States_and_Canada:487,https://en.wikipedia.org:443/wiki/Sports_in_El_Salvador:790 791 792 793 794 795 796 797,https://en.wikipedia.org:443/wiki/Boston_Red_Sox:2566,https://en.wikipedia.org:443/wiki/New_England_Patriots:2930 2931 2932,https://www.nytimes.com:443/spotlight/podcasts?page=6:589 590,https://en.wikipedia.org:443/wiki/Culture_of_the_United_States:2582 2583,https://en.wikipedia.org:443/wiki/Southern_United_States:2859 2860 2861 2862,https://en.wikipedia.org:443/wiki/Sports_in_Venezuela:576,https://www.nytimes.com:443/video/last-word:308 309,https://en.wikipedia.org:443/wiki/Olympic_Games:2699,https://www.sbnation.com:443/2014/10/5/6916597/nba-new-tv-deal-espn-turner-24-billion:158,https://www.nfl.com:443/standings/conference/2023/REG:178 179 180 181 