curtain curtain-0 897 https://www.azcentral.com:443/story/sports/nfl/cardinals/2015/09/06/nfls-dynasties-decade/71605710/:150 151,https://www.nytimes.com:443/section/corrections?page=5:248,https://www.nytimes.com:443/video/us/100000007348445/breonna-taylor-death-cops.html:244,https://www.nytimes.com:443/wirecutter/:751 752,https://www.nytimes.com:443/2024/05/03/books/cj-sansom-dead.html:171,https://en.wikipedia.org:443/wiki/Olympic_Games:2775,https://en.wikipedia.org:443/wiki/History_of_the_United_States_(1945%E2%80%931964):2079 2080 2081,https://en.wikipedia.org:443/wiki/Architecture_of_the_United_States:1673 1674,https://www.nytimes.com:443/section/obituaries:149,https://www.businessinsider.com:443/real-estate:321,https://en.wikipedia.org:443/wiki/Cold_War:4772 4773 4774 4775 4776 4777 4778 4779 4780 4781 4782 4783 4784 4785 4786 4787 4788 4789 4790,https://en.wikipedia.org:443/wiki/Vietnam_War:4297 4298 