dalla dalla-0 4755 https://en.wikipedia.org:443/wiki/Terrorism_in_the_United_States:3307 3308 3309 3310,https://en.wikipedia.org:443/wiki/Boston:4043 4044,https://bolavip.com:443/en:180 181,https://cooking.nytimes.com:443/about-us:240,https://www.nfl.com:443/teams/seattle-seahawks/:144 145,https://en.wikipedia.org:443/wiki/United_States_Reports:227 228 229 230 231 232 233 234 235,https://en.wikipedia.org:443/wiki/Inter_Miami:1664 1665,https://en.wikipedia.org:443/wiki/Southern_United_States:2998 2999 3000 3001 3002 3003 3004 3005 3006 3007 3008 3009 3010 3011 3012 3013 3014 3015 3016 3017,https://en.wikipedia.org:443/wiki/MLS:2333 2334 2335 2336 2337 2338 2339 2340 2341 2342 2343 2344 2345,https://en.wikipedia.org:443/wiki/Louise_Suggs:314 315 316,https://en.wikipedia.org:443/wiki/Spectrum_Sports:259 260 261,https://www.azcentral.com:443/story/sports/nfl/cardinals/2015/09/06/nfls-dynasties-decade/71605710/:152 153 154 155,https://en.wikipedia.org:443/wiki/United_States_dollar:1906,https://www.tlc.com:443/inside-tlc/TLC-Casting:243,https://en.wikipedia.org:443/wiki/Drug_Enforcement_Administration:1501,https://en.wikipedia.org:443/wiki/Sports_in_Washington:1089,https://en.wikipedia.org:443/wiki/NBA:1719 1720 1721 1722 1723 1724 1725 1726 1727 1728 1729,https://www.law.cornell.edu:443/supremecourt/text/74/700:1389,https://en.wikipedia.org:443/wiki/U.S._Immigration_and_Customs_Enforcement:1451,https://en.wikipedia.org:443/wiki/Sports_in_India:3749,https://en.wikipedia.org:443/wiki/Americans:2612,https://www.forbes.com:443/2008/09/09/mls-soccer-beckham-biz-sports-cz_kb_0909mlsvalues.html:83,https://en.wikipedia.org:443/wiki/History_of_the_United_States_(2008%E2%80%93present):2762 2763,https://www.nfl.com:443/standings/:200 201 202,https://en.wikipedia.org:443/wiki/List_of_mountains_of_the_United_States:1712,https://www.forbes.com:443/sites/zachslaton/2012/10/15/how-the-mls-playoff-format-punishes-ambitious-teams/:189,https://en.wikipedia.org:443/wiki/List_of_current_United_States_district_judges:2590 2591 2592 2593 2594 2595 2596 2597 2598 2599,https://en.wikipedia.org:443/wiki/The_Washington_Post:1468,https://en.wikipedia.org:443/wiki/United_States_Aquatic_Sports:248 249 250,https://www.nfl.com:443/teams/baltimore-ravens/:162 163,http://www.redsoxdiehard.com:80/players/unifnums.html:1147,https://en.wikipedia.org:443/wiki/Democratic_Party_(United_States):2883 2884,https://en.wikipedia.org:443/wiki/History_of_the_United_States_(1945%E2%80%931964):2091 2092,https://en.wikipedia.org:443/wiki/2023_Big_Ten_Conference_football_season:1153 1154 1155,https://www.nfl.com:443/standings/conference/2023/REG:186 187 188,https://en.wikipedia.org:443/wiki/Major_Arena_Soccer_League:655 656 657 658 659,https://en.wikipedia.org:443/wiki/Horse_racing_in_the_United_States:325 326,https://www.theguardian.com:443/sport/nhl:157,https://www.saturdaydownsouth.com:443/sports/ranking-top-25-rivalries-college-sports-2023/:413,https://en.wikipedia.org:443/wiki/American_League:609 610,https://en.wikipedia.org:443/wiki/Soccer_in_the_United_States:2076,https://en.wikipedia.org:443/wiki/Fashion_in_the_United_States:481 482,https://www.sbnation.com:443/2014/10/5/6916597/nba-new-tv-deal-espn-turner-24-billion:167 168,https://www.nytimes.com:443/section/style:145,https://www.nytimes.com:443/section/arts/music:88 89,https://en.wikipedia.org:443/wiki/WNBA%27s_Top_15_Team:167,https://en.wikipedia.org:443/wiki/Disc_golf_in_the_United_States:228,https://en.wikipedia.org:443/wiki/Major_professional_sports_teams_of_the_United_States_and_Canada:505 506 507 508 509 510 511,https://www.nfl.com:443/teams/indianapolis-colts/:157 158,https://commons.wikimedia.org:443/wiki/Category:Sports_in_the_United_States:187,https://en.wikipedia.org:443/wiki/USA_Cricket:558 559 560,https://en.wikipedia.org:443/wiki/Red_River_of_the_South:535,https://www.nytimes.com:443/section/fashion/weddings:235,https://en.wikipedia.org:443/wiki/United_States_men%27s_national_soccer_team:2161 2162 2163,https://en.wikipedia.org:443/wiki/List_of_U.S._states_and_territories_by_life_expectancy:519,https://www.nfl.com:443/teams/philadelphia-eagles/:148 149,https://www.nytimes.com:443/live/2024/05/02/us/biden-trump-campaign:657,https://en.wikipedia.org:443/wiki/Fenway_Park:2413 2414 2415 2416 2417 2418,https://www.independent.co.uk:443/sport/us-sport/nba/draft-2020-what-time-start-uk-b1725070.html:164 165 166 167,https://en.wikipedia.org:443/wiki/Gymnastics_in_the_United_States:490,https://en.wikipedia.org:443/wiki/Culture_of_the_United_States:2849 2850,https://www.nytimes.com:443/section/books/review?page=7:433 434,https://en.wikipedia.org:443/wiki/New_England_Patriots:3004 3005 3006 3007 3008,https://en.wikipedia.org:443/wiki/National_Football_League:1657 1658 1659 1660 