dan dan-0 4991 https://www.nytimes.com:443/spotlight/nytimesineducation:317,https://en.wikipedia.org:443/wiki/Vietnam_War:4335,https://cooking.nytimes.com:443/christmas:425 426 427 428 429 430 431 432 433,https://en.wikipedia.org:443/wiki/Architecture_of_the_United_States:1679,https://en.wikipedia.org:443/wiki/United_States_Olympic_%26_Paralympic_Committee:974,http://www.redsoxdiehard.com:80/players/unifnums.html:1157 1158 1159 1160 1161 1162 1163,https://www.nytimes.com:443/wirecutter/:763 764,https://en.wikipedia.org:443/wiki/Supreme_Court_of_the_United_States:4704 4705,https://en.wikipedia.org:443/wiki/Indiana:2299 2300,https://en.wikipedia.org:443/wiki/Culture_of_the_United_States:2851,https://en.wikipedia.org:443/wiki/Southern_United_States:3019 3020,https://www.commanders.com:443/news/commanders-agree-to-trade-de-montez-sweat-to-chicago-bears:135,https://en.wikipedia.org:443/wiki/Major_professional_sports_teams_of_the_United_States_and_Canada:512,https://en.wikipedia.org:443/wiki/National_Football_League:1661 1662,https://en.wikipedia.org:443/wiki/USA_Baseball:1769,https://en.wikipedia.org:443/wiki/Boston_Red_Sox:2684 2685 2686 2687 2688 2689 2690 2691 2692 2693 2694,https://en.wikipedia.org:443/wiki/Terrorism_in_the_United_States:3320 3321,https://www.nytimes.com:443/section/technology:137,https://en.wikipedia.org:443/wiki/Bodybuilding_in_the_United_States:290,https://en.wikipedia.org:443/wiki/Drug_Enforcement_Administration:1504,https://en.wikipedia.org:443/wiki/National_League_(baseball):948,https://en.wikipedia.org:443/wiki/NBA:1734,https://www.nytimes.com:443/es/:307,https://en.wikipedia.org:443/wiki/Americans:2614,https://en.wikipedia.org:443/wiki/Sports_in_Kentucky:983,https://en.wikipedia.org:443/wiki/National_Reconnaissance_Office:1079,https://en.wikipedia.org:443/wiki/Fenway_Park:2424 2425 2426 2427 2428 2429 2430,https://en.wikipedia.org:443/wiki/Democratic_Party_(United_States):2886 2887,https://en.wikipedia.org:443/wiki/New_England:2360,https://en.wikipedia.org:443/wiki/Cold_War:4845,https://en.wikipedia.org:443/wiki/United_States_Declaration_of_Independence:2461,https://www.nytimes.com:443/section/arts/television?page=3:177,https://www.usatoday.com:443/story/sports/mlb/2013/08/11/fox-sports-1-versus-espn/2641247/:230 231,https://en.wikipedia.org:443/wiki/Associate_Justice_of_the_Supreme_Court_of_the_United_States:799,https://www.azcentral.com:443/story/sports/nfl/cardinals/2015/09/06/nfls-dynasties-decade/71605710/:156,https://www.nytimes.com:443/section/well:147,https://en.wikipedia.org:443/wiki/College_basketball:1793,https://en.wikipedia.org:443/wiki/List_of_current_United_States_district_judges:2604,https://en.wikipedia.org:443/wiki/New_England_Patriots:3010 3011 3012,https://commons.wikimedia.org:443/wiki/Category:Sports_in_Maryland:115,https://en.wikipedia.org:443/wiki/Spanish%E2%80%93American_War:3802,https://www.theguardian.com:443/sport/2004/jul/27/cricket.comment:218,https://www.nytimes.com:443/2024/04/24/podcasts/laufey-gen-zs-jazz-icon-sings-for-anxious-generation.html:366 367 368 369 370,https://www.nytimes.com:443/spotlight/podcasts?page=6:704 705 706 707 708 709 710 711 712 713 714 715 716 717 718 719 720 721 722 723 724 725 726 727 728 729 730 731 732 733 734 735 736 737 738 739 740 741 742,https://en.wikipedia.org:443/wiki/Baseball:2632,https://en.wikipedia.org:443/wiki/IndyCar_Series:1546 1547 1548 1549 1550 1551 1552 1553 1554 1555 1556,https://en.wikipedia.org:443/wiki/Soccer_in_the_United_States:2079,https://www.nytimes.com:443/section/style:146,https://en.wikipedia.org:443/wiki/War_in_Afghanistan_(2001%E2%80%932021):5232 5233 5234 5235 5236,https://en.wikipedia.org:443/wiki/List_of_mountains_of_the_United_States:1720,https://cooking.nytimes.com:443/recipes/1023559-ina-gartens-bourbon-chocolate-pecan-pie:457,https://en.wikipedia.org:443/wiki/MLB_Network:1062 1063 1064 1065 1066,https://www.nytimes.com:443/section/arts/television:97,https://en.wikipedia.org:443/wiki/American_exceptionalism:1558,https://www.nytimes.com:443/section/fashion/weddings:236,https://en.wikipedia.org:443/wiki/Jack_Nicklaus:1925 1926 1927,https://cooking.nytimes.com:443/topics/our-best-pasta-recipes:178,https://en.wikipedia.org:443/wiki/History_of_the_United_States_(1945%E2%80%931964):2097,https://en.wikipedia.org:443/wiki/History_of_the_United_States_(2008%E2%80%93present):2780 2781 2782 2783 2784,https://www.nytimes.com:443/2024/05/04/opinion/alexandria-ocasio-cortez.html:327,https://en.wikipedia.org:443/wiki/The_Washington_Post:1470 1471 1472 1473 1474,https://en.wikipedia.org:443/wiki/Cable_television:1119,https://www.nytimes.com:443/spotlight/podcasts:485 486 487 488 489 490 491 492 493 494 495 496 497 498 499 500 501 502 503 504 505 506 507 508 509 510,https://www.nytimes.com:443/section/t-magazine:243,https://en.wikipedia.org:443/wiki/Fox_Sports_1:1075 1076 1077 1078,https://en.wikipedia.org:443/wiki/Olympic_Games:2810,https://www.nytimes.com:443/article/senate-races-2024-election.html:234 235 