dant dant-0 372 https://www.nytimes.com:443/2024/05/03/climate/nasa-satellites-data.html:217,http://www.redsoxdiehard.com:80/players/unifnums.html:1186,https://www.azcentral.com:443/story/sports/nfl/cardinals/2015/09/06/nfls-dynasties-decade/71605710/:157,https://en.wikipedia.org:443/wiki/New_England_Patriots:3020,https://www.espn.com:443/college-football/boxscore/_/gameId/401520265:75 