darren darren-0 536 https://en.wikipedia.org:443/wiki/USA_Baseball:1771 1772 1773,https://www.businessinsider.com:443/fastest-growing-sport-in-america-2011-9:93,https://en.wikipedia.org:443/wiki/Jack_Nicklaus:1932,https://www.azcentral.com:443/story/sports/nfl/cardinals/2015/09/06/nfls-dynasties-decade/71605710/:158,https://en.wikipedia.org:443/wiki/History_of_the_United_States_(2008%E2%80%93present):2790,http://www.redsoxdiehard.com:80/players/unifnums.html:1192 1193 1194,https://en.wikipedia.org:443/wiki/2023_Big_Ten_Conference_football_season:1173 