dave dave-0 2393 https://en.wikipedia.org:443/wiki/New_England_Patriots:3042 3043 3044 3045,https://www.azcentral.com:443/story/sports/nfl/cardinals/2015/09/06/nfls-dynasties-decade/71605710/:159,https://en.wikipedia.org:443/wiki/History_of_the_United_States_(1945%E2%80%931964):2105,https://en.wikipedia.org:443/wiki/USA_Baseball:1777 1778 1779 1780,https://en.wikipedia.org:443/wiki/United_States_men%27s_national_soccer_team:2170 2171,https://cooking.nytimes.com:443/recipes/1016295-mint-julep:388,https://en.wikipedia.org:443/wiki/MLB_Network:1074 1075,https://www.nytimes.com:443/2024/05/02/us/blast-mortar-brain-injury-military.html:287 288 289,https://en.wikipedia.org:443/wiki/IndyCar_Series:1581,https://www.nytimes.com:443/2024/04/27/us/politics/trump-trial-fact-check.html:205,https://en.wikipedia.org:443/wiki/History_of_the_United_States_(2008%E2%80%93present):2806,https://stmarysmusings.sbnation.com:443/:155,https://en.wikipedia.org:443/wiki/2023_Big_Ten_Conference_football_season:1175,https://www.nytimes.com:443/section/todayspaper:102,https://en.wikipedia.org:443/wiki/National_Football_League:1669,https://en.wikipedia.org:443/wiki/Vietnam_War:4367,https://en.wikipedia.org:443/wiki/Boston_Red_Sox:2713 2714 2715 2716 2717 2718 2719 2720 2721 2722 2723 2724 2725,https://www.wired.com:443/2016/08/olympic-cities-everywhere/:233 234,https://en.wikipedia.org:443/wiki/Ice_hockey:1501,https://en.wikipedia.org:443/wiki/Fenway_Park:2447 2448 2449 2450,https://en.wikipedia.org:443/wiki/NBA:1749 1750,https://www.nytimes.com:443/books/best-sellers/:671,https://en.wikipedia.org:443/wiki/Baseball:2648,https://en.wikipedia.org:443/wiki/Town_meeting:629,http://www.redsoxdiehard.com:80/players/unifnums.html:1204 1205 1206 1207 1208 1209 1210 1211 1212 1213 1214 1215 1216 1217 1218 1219 1220 1221 1222 1223 1224 1225 1226 1227 1228 1229 1230 1231 1232 1233 1234 1235 1236 1237 1238,https://www.nytimes.com:443/article/trump-hush-money-trial-transcripts.html:89,https://en.wikipedia.org:443/wiki/Sports_in_India:3791,https://en.wikipedia.org:443/wiki/Jack_Nicklaus:1937 1938 1939 1940 1941 1942 1943 1944 1945 1946 1947 1948 1949 1950 1951 1952 1953 1954,https://en.wikipedia.org:443/wiki/American_exceptionalism:1567 1568,https://www.nytimes.com:443/section/corrections?page=5:253,https://en.wikipedia.org:443/wiki/Snowboarding:918,https://www.nytimes.com:443/spotlight/visual-investigations:425 