davi davi-0 6421 https://en.wikipedia.org:443/wiki/Drug_Enforcement_Administration:1535,https://en.wikipedia.org:443/wiki/Baseball:2655 2656 2657,https://en.wikipedia.org:443/wiki/United_States_men%27s_national_soccer_team:2173 2174 2175 2176 2177 2178 2179 2180 2181 2182 2183,https://en.wikipedia.org:443/wiki/National_Football_League:1676,https://en.wikipedia.org:443/wiki/NBA:1767,https://en.wikipedia.org:443/wiki/Red_River_of_the_South:544,https://www.nytimes.com:443/section/politics:140,https://en.wikipedia.org:443/wiki/Vietnam_War:4385 4386,https://www.law.cornell.edu:443/supremecourt/text/74/700:1395,https://en.wikipedia.org:443/wiki/Olympic_Games:2827,https://www.usatoday.com:443/story/sports/mlb/2016/11/03/world-series-tv-television-ratings-chicago-cubs-cleveland-indians/93231896/:62,https://en.wikipedia.org:443/wiki/MLS:2372 2373 2374 2375 2376,https://en.wikipedia.org:443/wiki/Environmental_issues_in_the_United_States:847 848 849 850,https://en.wikipedia.org:443/wiki/Spanish%E2%80%93American_War:3829 3830,https://en.wikipedia.org:443/wiki/Agriculture_in_the_United_States:1459,https://en.wikipedia.org:443/wiki/Sports_in_Samoa:365 366,https://www.nytimes.com:443/section/opinion?page=5:253,https://en.wikipedia.org:443/wiki/Sports_in_Kentucky:995,https://en.wikipedia.org:443/wiki/Supreme_Court_of_the_United_States:4757,https://www.nytimes.com:443/2014/11/11/technology/obama-net-neutrality-fcc.html:207,https://en.wikipedia.org:443/wiki/Cable_television:1134 1135,https://www.bbc.co.uk:443/news/world-asia-35169478:241,https://en.wikipedia.org:443/wiki/Fashion_in_the_United_States:487,https://en.wikipedia.org:443/wiki/Inter_Miami:1722,https://en.wikipedia.org:443/wiki/War_in_Afghanistan_(2001%E2%80%932021):5293,https://en.wikipedia.org:443/wiki/Colonial_history_of_the_United_States:3522,https://www.nytimes.com:443/section/us:126 127,https://en.wikipedia.org:443/wiki/National_Boxing_Association:850 851 852 853 854 855 856 857 858 859 860 861 862,https://en.wikipedia.org:443/wiki/Education_in_the_United_States:2424 2425 2426,https://www.nytimes.com:443/2024/05/02/us/blast-mortar-brain-injury-military.html:290 291 292,https://www.azcentral.com:443/story/sports/nfl/cardinals/2015/09/06/nfls-dynasties-decade/71605710/:160 161,https://www.nytimes.com:443/section/science?page=9:595,https://en.wikipedia.org:443/wiki/Sports_in_India:3793,https://www.theguardian.com:443/sport/2017/aug/19/will-mcgregor-v-mayweather-save-american-boxing-or-bury-it?CMP=share_btn_link:389 390,https://en.wikipedia.org:443/wiki/Architecture_of_the_United_States:1689 1690,https://en.wikipedia.org:443/wiki/Race_and_maternal_health_in_the_United_States:857 858,https://www.nytimes.com:443/section/opinion/contributors:56,https://www.nytimes.com:443/spotlight/graphics:149,https://en.wikipedia.org:443/wiki/Portal:Current_events:652,https://en.wikipedia.org:443/wiki/History_of_the_United_States_(1849%E2%80%931865):1333 1334 1335 1336 1337,https://en.wikipedia.org:443/wiki/Cold_War:4888,https://en.wikipedia.org:443/wiki/The_Washington_Post:1504 1505 1506,https://en.wikipedia.org:443/wiki/Sports_in_American_Samoa:291 292,https://www.nytimes.com:443/spotlight/podcasts:529 530 531 532 533 534 535 536 537 538,https://en.wikipedia.org:443/wiki/Maternal_mortality_in_the_United_States:1014 1015 1016,https://www.bbc.co.uk:443/news/world-us-canada-55358342:123,https://en.wikipedia.org:443/wiki/List_of_current_United_States_district_judges:2703 2704 2705 2706 2707,https://www.nytimes.com:443/spotlight/podcasts?page=6:771 772 773 774 775 776 777 778 779 780 781 782,https://en.wikipedia.org:443/wiki/Boston_Red_Sox:2752,https://en.wikipedia.org:443/wiki/National_Reconnaissance_Office:1097,https://en.wikipedia.org:443/wiki/Francis_Olympic_Field:521,https://en.wikipedia.org:443/wiki/Southern_United_States:3053 3054,https://www.nytimes.com:443/section/fashion/weddings:245 246,https://en.wikipedia.org:443/wiki/History_of_the_United_States_(1945%E2%80%931964):2114 2115 2116 2117 2118,https://www.nytimes.com:443/news-event/2024-election:142,https://www.nytimes.com:443/section/obituaries:153,https://www.nytimes.com:443/section/well:157,https://en.wikipedia.org:443/wiki/Tribal_sovereignty_in_the_United_States:1113,https://www.nytimes.com:443/wirecutter/:768,https://en.wikipedia.org:443/wiki/Rugby_union_at_the_Summer_Olympics:429,http://www.redsoxdiehard.com:80/players/unifnums.html:1259 1260 1261 1262 1263,https://www.nytimes.com:443/live/2024/05/02/us/biden-trump-campaign:663,https://www.nytimes.com:443/section/science:203,https://en.wikipedia.org:443/wiki/New_England_Patriots:3051,https://en.wikipedia.org:443/wiki/Sports_in_Uruguay:280,https://www.nytimes.com:443/spotlight/graphics?page=10:563 564 565,https://en.wikipedia.org:443/wiki/Sports_in_Armenia:764,https://en.wikipedia.org:443/wiki/List_of_mountains_of_the_United_States:1728 1729 1730 1731,https://en.wikipedia.org:443/wiki/American_Revolution:4265 4266 4267 4268,https://en.wikipedia.org:443/wiki/Carlos_Bocanegra:806 807,https://en.wikipedia.org:443/wiki/Louise_Suggs:319 320 321,https://en.wikipedia.org:443/wiki/Culture_of_the_United_States:2890 2891 2892 2893,https://en.wikipedia.org:443/wiki/Associate_Justice_of_the_Supreme_Court_of_the_United_States:811 812 813,https://www.nytimes.com:443/section/style:151,https://en.wikipedia.org:443/wiki/Speaker_of_the_United_States_House_of_Representatives:1101,https://en.wikipedia.org:443/wiki/U.S._Immigration_and_Customs_Enforcement:1463 1464,https://theconversation.com:443/the-rise-and-rise-of-ultimate-fighting-and-why-boxing-is-now-so-passe-55910:131,https://www.nytimes.com:443/2022/02/11/sports/horse-racing/medina-spirit-kentucky-derby-necropsy.html?searchResultPosition=2:163,https://en.wikipedia.org:443/wiki/Democratic_Party_(United_States):2923 2924 2925 2926 2927 2928,https://en.wikipedia.org:443/wiki/Cycling_in_the_United_States:368,https://en.wikipedia.org:443/wiki/Sports_in_Finland:644 645,https://www.nytimes.com:443/2024/04/24/podcasts/laufey-gen-zs-jazz-icon-sings-for-anxious-generation.html:384 385 386 387,https://en.wikipedia.org:443/wiki/Jack_Nicklaus:1972 1973 1974 1975 1976 1977 1978 1979,https://en.wikipedia.org:443/wiki/United_States_at_the_FIFA_Confederations_Cup:256 257 258,https://en.wikipedia.org:443/wiki/Terrorism_in_the_United_States:3357 3358,https://en.wikipedia.org:443/wiki/Sports_in_Venezuela:635 636,https://en.wikipedia.org:443/wiki/Fenway_Park:2467 