dealt dealt-0 693 https://en.wikipedia.org:443/wiki/Southern_United_States:3074,https://en.wikipedia.org:443/wiki/Iroquois:3411 3412 3413,https://en.wikipedia.org:443/wiki/Powers_of_the_president_of_the_United_States:841,https://en.wikipedia.org:443/wiki/Town_meeting:650,https://en.wikipedia.org:443/wiki/Boston_Red_Sox:2799,https://www.azcentral.com:443/story/sports/nfl/cardinals/2015/09/06/nfls-dynasties-decade/71605710/:162,https://en.wikipedia.org:443/wiki/Colonial_history_of_the_United_States:3550,https://en.wikipedia.org:443/wiki/Spanish%E2%80%93American_War:3865 3866,https://en.wikipedia.org:443/wiki/Cold_War:4923,https://www.nytimes.com:443/2024/05/03/opinion/campus-protests-israel-gaza.html:491 