dean dean-0 3039 https://en.wikipedia.org:443/wiki/MLS:2434,https://en.wikipedia.org:443/wiki/The_Washington_Post:1523 1524 1525 1526,https://en.wikipedia.org:443/wiki/Articles_of_Confederation:2109,https://en.wikipedia.org:443/wiki/Vietnam_War:4453 4454,https://en.wikipedia.org:443/wiki/Speaker_of_the_United_States_House_of_Representatives:1112 1113 1114 1115,https://en.wikipedia.org:443/wiki/American_exceptionalism:1586,https://en.wikipedia.org:443/wiki/War_in_Afghanistan_(2001%E2%80%932021):5370 5371,https://en.wikipedia.org:443/wiki/History_of_the_United_States_(1945%E2%80%931964):2141 2142 2143 2144 2145,https://www.usatoday.com:443/news/nation/:81,https://en.wikipedia.org:443/wiki/Timeline_of_United_States_inventions_(after_1991):663 664 665,https://en.wikipedia.org:443/wiki/Cold_War:4924 4925,https://en.wikipedia.org:443/wiki/Education_in_the_United_States:2435,https://en.wikipedia.org:443/wiki/History_of_the_United_States_(1849%E2%80%931865):1351,https://en.wikipedia.org:443/wiki/Summer_Olympic_Games:1274,https://www.telegraph.co.uk:443/news/worldnews/asia/afghanistan/8693247/Secret-peace-talks-between-US-and-Taliban-collapse-over-leaks.html:159,https://en.wikipedia.org:443/wiki/U.S._state:1304,https://en.wikipedia.org:443/wiki/Baseball:2681 2682,https://www.nytimes.com:443/section/education:171 172,https://www.azcentral.com:443/story/sports/nfl/cardinals/2015/09/06/nfls-dynasties-decade/71605710/:163,https://en.wikipedia.org:443/wiki/New_England_Patriots:3068 3069,https://en.wikipedia.org:443/wiki/American_Revolution:4300,https://en.wikipedia.org:443/wiki/Democratic_Party_(United_States):2976 2977 2978 2979,https://www.nytimes.com:443/section/science?page=9:599,https://en.wikipedia.org:443/wiki/United_States_Olympic_%26_Paralympic_Committee:988,https://en.wikipedia.org:443/wiki/List_of_current_United_States_district_judges:2715 2716,https://www.purdue.edu:443/newsroom/releases/2016/Q3/purdue-university-sets-records-for-largest-enrollment-and-highest-graduation-rates-ever.html:95 96,https://en.wikipedia.org:443/wiki/Bureau_of_Diplomatic_Security:1074,https://en.wikipedia.org:443/wiki/Boston_Red_Sox:2800,https://en.wikipedia.org:443/wiki/Sergeant_at_Arms_of_the_United_States_Senate:503 504,https://en.wikipedia.org:443/wiki/Spanish%E2%80%93American_War:3867 3868,https://www.cnn.com:443/2020/09/26/politics/supreme-court-conservative/index.html:422,https://en.wikipedia.org:443/wiki/Constitution_of_the_United_States:3781,https://www.theguardian.com:443/us/soccer:223,https://en.wikipedia.org:443/wiki/Perpetual_Union:917,https://en.wikipedia.org:443/wiki/Iroquois:3414 3415 3416 3417 3418,https://en.wikipedia.org:443/wiki/Fenway_Park:2502,https://en.wikipedia.org:443/wiki/Fox_Sports_1:1118,https://en.wikipedia.org:443/wiki/Sports_in_Kentucky:1004,https://en.wikipedia.org:443/wiki/USA_Baseball:1796,http://www.redsoxdiehard.com:80/players/unifnums.html:1269,https://en.wikipedia.org:443/wiki/Jack_Nicklaus:1992 1993 1994 1995,https://en.wikipedia.org:443/wiki/United_States_Declaration_of_Independence:2527 