decid decid-0 9328 https://www.nytimes.com:443/2024/05/04/style/nonalcoholic-drinks-kids-mocktail.html:188,https://en.wikipedia.org:443/wiki/History_of_the_United_States_(1849%E2%80%931865):1379 1380 1381 1382 1383 1384 1385 1386,https://www.azcentral.com:443/story/sports/nfl/cardinals/2015/09/06/nfls-dynasties-decade/71605710/:178,https://www.nytimes.com:443/2024/05/04/opinion/chronic-illness-vaccines-long-covid.html:144,https://en.wikipedia.org:443/wiki/Colonial_history_of_the_United_States:3578 3579 3580 3581 3582,https://www.nytimes.com:443/section/politics:141,https://www.nytimes.com:443/2024/04/18/t-magazine/chalet-des-iles-paris-restaurant.html:340,https://en.wikipedia.org:443/wiki/Architecture_of_the_United_States:1706 1707,https://www.saturdaydownsouth.com:443/sports/ranking-top-25-rivalries-college-sports-2023/:437,https://millercenter.org:443/president/adams/essays/clay-1825-secretary-of-state:161,https://www.law.cornell.edu:443/supremecourt/text/74/700:1422 1423 1424 1425 1426 1427 1428 1429,https://en.wikipedia.org:443/wiki/USA_Baseball:1800,https://www.businessinsider.com:443/guides/tech:328,https://en.wikipedia.org:443/wiki/National_Football_League:1734 1735,https://en.wikipedia.org:443/wiki/American_exceptionalism:1611,https://en.wikipedia.org:443/wiki/Gymnastics_in_the_United_States:502,https://en.wikipedia.org:443/wiki/National_League_(baseball):973 974,https://en.wikipedia.org:443/wiki/List_of_current_United_States_district_judges:2735,https://www.nytimes.com:443/privacy/cookie-policy:166,https://en.wikipedia.org:443/wiki/Cold_War:5013 5014 5015,https://en.wikipedia.org:443/wiki/College_athletics_in_the_United_States:1470 1471,https://en.wikipedia.org:443/wiki/Rugby_union_at_the_Summer_Olympics:436,https://en.wikipedia.org:443/wiki/Sports_in_India:3878 3879 3880 3881,https://en.wikipedia.org:443/wiki/Education_in_the_United_States:2489 2490 2491,https://www.theguardian.com:443/sport/2017/aug/19/will-mcgregor-v-mayweather-save-american-boxing-or-bury-it?CMP=share_btn_link:402,https://en.wikipedia.org:443/wiki/Sports_in_Washington:1121,https://arxiv.org:443/abs/1607.04484:146 147,https://en.wikipedia.org:443/wiki/Municipal_council:873,https://www.nytimes.com:443/section/technology:145,https://en.wikipedia.org:443/wiki/Template_talk:United_States_topics:520 521 522,https://www.nytimes.com:443/video/us/100000007348445/breonna-taylor-death-cops.html:255,https://en.wikipedia.org:443/wiki/Olympic_Games:2903 2904 2905,https://www.businessinsider.com:443/personal-finance/mortgages:196,https://en.wikipedia.org:443/wiki/Spanish%E2%80%93American_War:3921 3922 3923 3924 3925,https://www.forbes.com:443/sites/zachslaton/2012/10/15/how-the-mls-playoff-format-punishes-ambitious-teams/:200 201 202,https://en.wikipedia.org:443/wiki/Jack_Nicklaus:2030 2031,https://www.nytimes.com:443/2024/03/30/opinion/abortion-drug-supreme-court.html:214 215,https://en.wikipedia.org:443/wiki/Americans:2705,https://en.wikipedia.org:443/wiki/Henley_Royal_Regatta:974 975 976,https://en.wikipedia.org:443/wiki/Fenway_Park:2538,https://en.wikipedia.org:443/wiki/Supreme_Court_of_the_United_States:4896 4897 4898 4899 4900 4901 4902 4903 4904 4905 4906 4907 4908 4909 4910 4911 4912 4913 4914 4915,https://en.wikipedia.org:443/wiki/U.S._state:1323,https://en.wikipedia.org:443/wiki/Democratic_Party_(United_States):3040,https://www.nytimes.com:443/2024/05/02/business/horse-racing-deaths-kentucky-derby.html:321,https://www.nytimes.com:443/2024/05/02/us/politics/abortion-ballot-measures-2024.html:289 290,https://www.nytimes.com:443/video/last-word:339 340 341 342 343 344 345 346,https://en.wikipedia.org:443/wiki/Summer_Olympic_Games:1288 1289 1290,https://en.wikipedia.org:443/wiki/MLS:2531 2532,https://en.wikipedia.org:443/wiki/Southern_United_States:3130,https://www.nytimes.com:443/2024/04/24/podcasts/laufey-gen-zs-jazz-icon-sings-for-anxious-generation.html:393,https://www.nytimes.com:443/article/senate-races-2024-election.html:246 247,https://en.wikipedia.org:443/wiki/United_States_dollar:1964,https://www.nytimes.com:443/2024/04/12/fashion/weddings/elena-bauer-joshua-fagel-wedding.html:191,https://en.wikipedia.org:443/wiki/Constitution_of_the_United_States:3831 3832 3833 3834 3835 3836 3837 3838,https://en.wikipedia.org:443/wiki/Soccer_in_the_United_States:2158 2159,https://www.nytimes.com:443/interactive/2024/02/22/crosswords/puzzle-personality.html:66,https://en.wikipedia.org:443/wiki/American_Revolution:4355 4356,https://en.wikipedia.org:443/wiki/Federal_tribunals_in_the_United_States:602 603 604,https://en.wikipedia.org:443/wiki/Indiana:2414 2415,https://www.nytimes.com:443/2005/09/18/opinion/conventional-wisdom.html:144,https://cooking.nytimes.com:443/recipes/1024469-tomato-cheddar-toasts:418,https://www.nytimes.com:443/section/todayspaper:110,https://en.wikipedia.org:443/wiki/Drug_Enforcement_Administration:1778,https://en.wikipedia.org:443/wiki/MLB_Network:1123 1124 1125,https://www.nytimes.com:443/2024/04/01/fashion/craft-handmade-umbrella-italy.html:231 232,https://en.wikipedia.org:443/wiki/Bureau_of_Diplomatic_Security:1104,https://en.wikipedia.org:443/wiki/IndyCar_Series:1610,https://en.wikipedia.org:443/wiki/Boston_Red_Sox:2843 2844 2845 2846 2847 2848,https://en.wikipedia.org:443/wiki/Tribal_sovereignty_in_the_United_States:1140,https://www.nytimes.com:443/2017/06/26/health/undocumented-immigrants-health-care.html:268,https://www.nytimes.com:443/2024/05/03/opinion/campus-protests-israel-gaza.html:495 496 497 498 499 500,https://en.wikipedia.org:443/wiki/Association_of_Summer_Olympic_International_Federations:280 281,https://www.nytimes.com:443/2024/04/26/us/politics/kristi-noem-dog-killing.html:132,https://www.nytimes.com:443/2024/05/04/opinion/alexandria-ocasio-cortez.html:339,https://en.wikipedia.org:443/wiki/Sports_in_Venezuela:643,https://www.businessinsider.com:443/real-estate:334 335,https://archive.curbed.com:443/2020/1/13/21026108/public-housing-faircloth-amendment-election-2020:221 222,https://en.wikipedia.org:443/wiki/New_England_Patriots:3172 3173 3174 3175,https://www.nytimes.com:443/section/fashion/weddings:252,https://www.nytimes.com:443/live/2024/01/19/world/israel-hamas-news/a-un-official-says-israeli-treatment-of-detainees-may-amount-to-torture?smid=url-share:765,https://en.wikipedia.org:443/wiki/Baseball:2700 2701 2702,https://en.wikipedia.org:443/wiki/Maternal_mortality_in_the_United_States:1168,https://en.wikipedia.org:443/wiki/Ice_hockey:1538 1539 1540,https://www.nytimes.com:443/2024/04/17/opinion/venezuela-oil-sanctions.html:154 155,https://en.wikipedia.org:443/wiki/Speaker_of_the_United_States_House_of_Representatives:1152 1153 1154,https://www.nytimes.com:443/section/us:131,https://en.wikipedia.org:443/wiki/Coterminous_municipality:127,https://en.wikipedia.org:443/wiki/U.S._Immigration_and_Customs_Enforcement:1487,https://www.telegraph.co.uk:443/news/worldnews/asia/afghanistan/8693247/Secret-peace-talks-between-US-and-Taliban-collapse-over-leaks.html:160,https://en.wikipedia.org:443/wiki/Associate_Justice_of_the_Supreme_Court_of_the_United_States:855 856,https://www.dandc.eu:443/en/article/dangers-us-administration-negotiating-taliban-without-involving-afghan-government:147 148,https://en.wikipedia.org:443/wiki/Immigrant_health_care_in_the_United_States:1308,https://en.wikipedia.org:443/wiki/United_States_Reports:243 244,https://bolavip.com:443/en/info/privacy:243,https://en.wikipedia.org:443/wiki/Articles_of_Confederation:2144,https://www.nytimes.com:443/2024/04/18/nyregion/trump-trial-jury-hush-money.html:140,https://www.nytimes.com:443/section/corrections?page=5:264 265,https://www.nytimes.com:443/wirecutter/:807 808,https://en.wikipedia.org:443/wiki/Volleyball:1365 1366,https://en.wikipedia.org:443/wiki/Prescription_drug_prices_in_the_United_States:1371,https://en.wikipedia.org:443/wiki/United_States_Declaration_of_Independence:2574 2575 2576 2577,https://en.wikipedia.org:443/wiki/Beach_volleyball:1410 1411 1412 1413 1414 1415 1416 1417,https://bolavip.com:443/en:193,https://en.wikipedia.org:443/wiki/History_of_the_United_States_(1945%E2%80%931964):2174 2175,https://en.wikipedia.org:443/wiki/Powers_of_the_president_of_the_United_States:847 848,https://en.wikipedia.org:443/wiki/Comparison_of_U.S._state_and_territory_governments:427,https://en.wikipedia.org:443/wiki/Spectrum_Sports:268,https://www.nytimes.com:443/news-event/2024-election:144,https://en.wikipedia.org:443/wiki/College_basketball:1811 1812 1813,https://www.nytimes.com:443/2024/05/03/opinion/us-africa-niger-chad.html:172,https://en.wikipedia.org:443/wiki/War_in_Afghanistan_(2001%E2%80%932021):5497 5498 5499 5500 5501 5502 5503 5504,https://en.wikipedia.org:443/wiki/Time_in_the_United_States:451,https://www.nytimes.com:443/2024/05/03/us/abortion-rights-missouri-south-dakota.html:193,https://en.wikipedia.org:443/wiki/Professional_boxer:549 550 551,https://en.wikipedia.org:443/wiki/Town_meeting:657 658 659 660 661 662,https://en.wikipedia.org:443/wiki/Vietnam_War:4552 4553,https://www.nytimes.com:443/section/sports:73,https://en.wikipedia.org:443/wiki/Iroquois:3471 3472 3473 3474 3475 3476 3477 3478,https://en.wikipedia.org:443/wiki/Sports_teams_in_Virginia:264,https://www.nytimes.com:443/2024/05/02/us/blast-mortar-brain-injury-military.html:303,https://en.wikipedia.org:443/wiki/American_League:620 