deficit deficit-0 1501 https://www.nytimes.com:443/2024/05/03/books/cj-sansom-dead.html:186,https://en.wikipedia.org:443/wiki/History_of_the_United_States_debt_ceiling:862 863 864,https://en.wikipedia.org:443/wiki/Vietnam_War:4678,https://en.wikipedia.org:443/wiki/Cold_War:5123,https://en.wikipedia.org:443/wiki/NBA:1878,https://en.wikipedia.org:443/wiki/Boston_Red_Sox:2876 2877,https://en.wikipedia.org:443/wiki/History_of_the_United_States_(2008%E2%80%93present):3067,https://www.cbo.gov:443/publication/53348:73 74 75,https://en.wikipedia.org:443/wiki/Drug_Enforcement_Administration:1804,https://en.wikipedia.org:443/wiki/Immigrant_health_care_in_the_United_States:1321,https://en.wikipedia.org:443/wiki/Great_Recession_in_the_United_States:1346 1347 1348,https://www.usatoday.com:443/story/news/politics/2022/08/04/krysten-sinema-inflation-reduction-act-senator-democrats-vote/10234906002/:106 107,https://www.nytimes.com:443/2024/05/04/us/politics/trump-biden-campaign-young-voters.html:193,https://en.wikipedia.org:443/wiki/Jack_Nicklaus:2056 2057 2058 2059 2060 2061 2062 2063 2064,https://www.nytimes.com:443/2009/01/05/opinion/05krugman.html:123,https://www.nytimes.com:443/2017/06/26/health/undocumented-immigrants-health-care.html:272,https://en.wikipedia.org:443/wiki/Education_in_the_United_States:2519 2520 2521,https://www.azcentral.com:443/story/sports/nfl/cardinals/2015/09/06/nfls-dynasties-decade/71605710/:185,https://ww2.arb.ca.gov:443/our-work/programs/low-carbon-fuel-standard/about:146 147 148 149 