deflect deflect-0 750 https://en.wikipedia.org:443/wiki/Antisemitism_in_the_United_States:1346,https://www.nytimes.com:443/2024/05/02/us/blast-mortar-brain-injury-military.html:310,https://www.nytimes.com:443/2024/04/24/us/palestinian-family-gaza-war-death.html:452,https://en.wikipedia.org:443/wiki/Terrorism_in_the_United_States:3611,https://en.wikipedia.org:443/wiki/Volleyball:1402 1403 1404,https://www.azcentral.com:443/story/sports/nfl/cardinals/2015/09/06/nfls-dynasties-decade/71605710/:186,https://www.nytimes.com:443/spotlight/visual-investigations:446,https://en.wikipedia.org:443/wiki/Ice_hockey:1591 1592,https://www.nytimes.com:443/2024/05/04/world/europe/russia-soldiers-women.html:255,https://en.wikipedia.org:443/wiki/Drug_Enforcement_Administration:1805 