degre degre-0 5451 https://en.wikipedia.org:443/wiki/National_Football_League:1756,https://en.wikipedia.org:443/wiki/Sports_in_Estonia:404,https://www.nytimes.com:443/2024/05/03/opinion/campus-protests-israel-gaza.html:517 518,https://history.army.mil:443/books/wwii/persian/index.htm:281,https://nces.ed.gov:443/blogs/nces/post/where-can-i-find-information-about-the-condition-of-education-in-the-united-states:118,https://en.wikipedia.org:443/wiki/Culture_of_the_United_States:3022 3023 3024,https://www.nytimes.com:443/2024/05/03/books/cj-sansom-dead.html:188 189,https://cooking.nytimes.com:443/recipes/1013611-rhubarb-upside-down-cake:530 531,https://en.wikipedia.org:443/wiki/Americans:2720,https://www.forbes.com:443/sites/zachslaton/2012/10/15/how-the-mls-playoff-format-punishes-ambitious-teams/:208,https://en.wikipedia.org:443/wiki/Southern_United_States:3204,https://en.wikipedia.org:443/wiki/Sports_in_India:3910 3911 3912,https://www.nytimes.com:443/2024/05/04/opinion/alexandria-ocasio-cortez.html:346,https://en.wikipedia.org:443/wiki/Town_meeting:679,https://www.nytimes.com:443/2024/04/24/us/palestinian-family-gaza-war-death.html:453,https://en.wikipedia.org:443/wiki/Indiana:2438,https://www.nytimes.com:443/live/2024/05/02/us/biden-trump-campaign:702 703,https://www.ncaa.org:443/sports/2021/4/21/division-ii-academics.aspx:96,https://en.wikipedia.org:443/wiki/Baseball:2738 2739 2740 2741 2742 2743,https://www.azcentral.com:443/story/sports/nfl/cardinals/2015/09/06/nfls-dynasties-decade/71605710/:187,https://en.wikipedia.org:443/wiki/Boston:4187 4188 4189,https://www.purdue.edu:443/newsroom/releases/2016/Q3/purdue-university-sets-records-for-largest-enrollment-and-highest-graduation-rates-ever.html:99,https://en.wikipedia.org:443/wiki/Tribal_sovereignty_in_the_United_States:1167 1168,https://en.wikipedia.org:443/wiki/Cold_War:5129,https://en.wikipedia.org:443/wiki/Supreme_Court_of_the_United_States:5071,https://en.wikipedia.org:443/wiki/U.S._state:1350 1351,https://en.wikipedia.org:443/wiki/American_Revolution:4467,https://en.wikipedia.org:443/wiki/Democratic_Party_(United_States):3083 3084 3085,https://en.wikipedia.org:443/wiki/Race_and_maternal_health_in_the_United_States:886,https://en.wikipedia.org:443/wiki/Snowboarding:944 945 946 947 948,https://en.wikipedia.org:443/wiki/Sports_in_Syria:513,https://en.wikipedia.org:443/wiki/Antisemitism_in_the_United_States:1347 1348 1349,https://www.nytimes.com:443/column/out-there:69,https://www.nytimes.com:443/2024/05/02/us/blast-mortar-brain-injury-military.html:311 312 313,https://en.wikipedia.org:443/wiki/Vietnam_War:4697 4698,https://arxiv.org:443/abs/1607.04484:148,https://en.wikipedia.org:443/wiki/United_States_Attorney:638,https://commons.wikimedia.org:443/wiki/Category:War_in_Afghanistan_(2001%E2%80%932021):363,https://www.nytimes.com:443/live/2024/05/04/us/college-campus-protests:845 846,https://www.nytimes.com:443/spotlight/graphics?page=10:600,https://en.wikipedia.org:443/wiki/College_athletics_in_the_United_States:1481 1482 1483 1484 1485 1486,https://cooking.nytimes.com:443/recipes/1018626-eggs-benedict:481 482 483,https://en.wikipedia.org:443/wiki/Articles_of_Confederation:2189,https://en.wikipedia.org:443/wiki/Terrorism_in_the_United_States:3615 3616 3617 3618,https://en.wikipedia.org:443/wiki/MLS:2559,https://en.wikipedia.org:443/wiki/Constitution_of_the_United_States:3918,https://cooking.nytimes.com:443/recipes/1019333-millionaires-shortbread:485 486 487 488,https://en.wikipedia.org:443/wiki/Olympic_Games:2933 2934,https://en.wikipedia.org:443/wiki/History_of_the_United_States_(1849%E2%80%931865):1417,https://en.wikipedia.org:443/wiki/United_States_federal_civil_service:606 607,https://en.wikipedia.org:443/wiki/History_of_the_United_States_(2008%E2%80%93present):3071,https://cooking.nytimes.com:443/recipes/1023559-ina-gartens-bourbon-chocolate-pecan-pie:474 475,https://cooking.nytimes.com:443/recipes/1024760-chocolate-layer-cake:627,https://en.wikipedia.org:443/wiki/Powers_of_the_president_of_the_United_States:879 880,https://en.wikipedia.org:443/wiki/IndyCar_Series:1627 1628,https://en.wikipedia.org:443/wiki/Environmental_issues_in_the_United_States:899,https://en.wikipedia.org:443/wiki/Iroquois:3560,https://www.nytimes.com:443/2024/04/12/fashion/weddings/elena-bauer-joshua-fagel-wedding.html:192 193 194,https://en.wikipedia.org:443/wiki/American_Sign_Language:1715 1716 1717 1718,https://www.themarshallproject.org:443/2022/06/14/what-did-fbi-data-say-about-crime-in-2021-it-s-too-unreliable-to-tell:353,https://en.wikipedia.org:443/wiki/Sports_in_South_Korea:484,https://en.wikipedia.org:443/wiki/Education_in_the_United_States:2526 2527 2528 2529 2530 2531 2532 2533 2534 2535 2536 2537 2538 2539 2540 2541 2542 2543 2544 2545 2546 2547 2548 2549 2550 2551 2552 2553 2554 2555 2556 2557 2558 2559 2560 2561 2562 2563 2564 2565 2566 2567 2568 2569 2570 2571 2572 2573 2574,https://cooking.nytimes.com:443/recipes/1022283-country-panzanella-with-watermelon-dressing:431,https://en.wikipedia.org:443/wiki/New_England:2457 2458,https://en.wikipedia.org:443/wiki/Colonial_history_of_the_United_States:3628 3629 3630,https://en.wikipedia.org:443/wiki/Immigrant_health_care_in_the_United_States:1323 1324,https://en.wikipedia.org:443/wiki/Volleyball:1416,https://www.nytimes.com:443/2024/05/04/nyregion/columbia-protests-arrest-agitators-israel.html:367,https://www.nytimes.com:443/2024/04/14/fashion/vintage-watches-reissued.html:165 