deion deion-0 550 https://en.wikipedia.org:443/wiki/2023_Big_Ten_Conference_football_season:1275 1276 1277 1278,https://www.espn.com:443/college-football/boxscore/_/gameId/401520417:87,https://www.azcentral.com:443/story/sports/nfl/cardinals/2015/09/06/nfls-dynasties-decade/71605710/:188,https://www.patriots.com:443/news/ben-coates-elected-to-patriots-hall-of-fame-140866:318,https://en.wikipedia.org:443/wiki/Jack_Nicklaus:2065,https://en.wikipedia.org:443/wiki/New_England_Patriots:3273 3274,https://www.espn.com:443/college-football/boxscore/_/gameId/401520324:82 