detroit detroit-0 4646 https://en.wikipedia.org:443/wiki/Major_Arena_Soccer_League:687 688 689,https://www.independent.co.uk:443/sport/us-sport/nba/draft-2020-what-time-start-uk-b1725070.html:184 185 186,https://en.wikipedia.org:443/wiki/IndyCar_Series:1674 1675 1676 1677 1678 1679,https://en.wikipedia.org:443/wiki/Colonial_history_of_the_United_States:3720 3721,https://en.wikipedia.org:443/wiki/Major_professional_sports_teams_of_the_United_States_and_Canada:527 528 529 530 531,https://www.patriots.com:443/news/check-out-the-2016-patriots-color-rush-jerseys-270621:261,https://en.wikipedia.org:443/wiki/New_England_Patriots:3343 3344,https://www.nfl.com:443/teams/baltimore-ravens/:169 170,https://en.wikipedia.org:443/wiki/Culture_of_the_United_States:3098 3099,https://en.wikipedia.org:443/wiki/List_of_current_United_States_district_judges:2790 2791 2792 2793 2794 2795 2796 2797 2798 2799 2800 2801 2802 2803 2804 2805 2806 2807,https://en.wikipedia.org:443/wiki/U.S._Immigration_and_Customs_Enforcement:1678,https://en.wikipedia.org:443/wiki/WNBA%27s_Top_15_Team:187,https://en.wikipedia.org:443/wiki/United_States_men%27s_national_soccer_team:2342,https://en.wikipedia.org:443/wiki/National_League_(baseball):1007 1008 1009 1010 1011 1012,https://www.nfl.com:443/teams/indianapolis-colts/:166 167,https://en.wikipedia.org:443/wiki/Fox_Sports_1:1150 1151,https://en.wikipedia.org:443/wiki/Architecture_of_the_United_States:1819 1820 1821,https://en.wikipedia.org:443/wiki/New_England:2568,https://en.wikipedia.org:443/wiki/American_League:633 634 635 636 637,https://www.pbs.org:443/wgbh/americanexperience/features/klansville-faq/:272,https://en.wikipedia.org:443/wiki/Northern_United_States:206,https://www.nytimes.com:443/article/senate-races-2024-election.html:294,https://en.wikipedia.org:443/wiki/Iroquois:3705,https://en.wikipedia.org:443/wiki/Sports_in_Maryland:1560,https://en.wikipedia.org:443/wiki/Terrorism_in_the_United_States:3712 3713,https://www.azcentral.com:443/story/sports/nfl/cardinals/2015/09/06/nfls-dynasties-decade/71605710/:189 190,https://en.wikipedia.org:443/wiki/Indiana:2539 2540,https://en.wikipedia.org:443/wiki/Category:Use_mdy_dates_from_October_2023:278,https://en.wikipedia.org:443/wiki/National_Football_League:1796 1797 1798 1799,https://en.wikipedia.org:443/wiki/Supreme_Court_of_the_United_States:5198,https://en.wikipedia.org:443/wiki/Boston_Red_Sox:2939 2940 2941 2942 2943 2944 2945 2946 2947 2948 2949,https://www.nfl.com:443/standings/conference/2023/REG:196 197 198,https://en.wikipedia.org:443/wiki/Cycling_in_the_United_States:384 385 386,https://en.wikipedia.org:443/wiki/2023_Big_Ten_Conference_football_season:1317 1318 1319,https://en.wikipedia.org:443/wiki/Boston:4276 4277 4278,https://en.wikipedia.org:443/wiki/Southern_United_States:3344,https://en.wikipedia.org:443/wiki/History_of_the_United_States_(1945%E2%80%931964):2303,https://en.wikipedia.org:443/wiki/Soccer_in_the_United_States:2224 2225 2226,https://en.wikipedia.org:443/wiki/Mayoralty_in_the_United_States:234 235 236 237,https://www.nytimes.com:443/section/jobs:86,https://www.sbnation.com:443/2014/10/5/6916597/nba-new-tv-deal-espn-turner-24-billion:184 185 186,https://en.wikipedia.org:443/wiki/Sports_in_Washington:1159,https://www.theatlantic.com:443/magazine/archive/2023/01/homelessness-affordable-housing-crisis-democrats-causes/672224/:340,https://www.nfl.com:443/teams/philadelphia-eagles/:156 157,https://www.nfl.com:443/standings/:216 217 218,https://en.wikipedia.org:443/wiki/College_basketball:1876,https://en.wikipedia.org:443/wiki/Americans:2800 2801 2802,https://www.patriots.com:443/news/ben-coates-elected-to-patriots-hall-of-fame-140866:325,https://en.wikipedia.org:443/wiki/U.S._state:1404,https://en.wikipedia.org:443/wiki/Agriculture_in_the_United_States:1553,https://en.wikipedia.org:443/wiki/Cold_War:5307,https://en.wikipedia.org:443/wiki/NBA:1928 1929 1930 1931 1932 1933 1934 1935 1936 1937,https://en.wikipedia.org:443/wiki/Drug_Enforcement_Administration:1887,https://www.nfl.com:443/teams/seattle-seahawks/:153 154,https://en.wikipedia.org:443/wiki/Ice_hockey:1642,https://en.wikipedia.org:443/wiki/Fenway_Park:2628 2629 2630 2631 2632 2633 2634 2635,https://en.wikipedia.org:443/wiki/Spectrum_Sports:278,https://en.wikipedia.org:443/wiki/The_Washington_Post:1640,https://en.wikipedia.org:443/wiki/MLB_Network:1175 1176 1177,https://en.wikipedia.org:443/wiki/Jack_Nicklaus:2128,https://www.businessinsider.com:443/real-estate:354 355,https://en.wikipedia.org:443/wiki/History_of_the_United_States_(2008%E2%80%93present):3195 3196 3197,https://www.sportsbusinessjournal.com:443/Daily/Issues/2024/04/29.aspx:273 