directori directori-0 2092 https://www.nytimes.com:443/section/arts/television?page=3:197,https://en.wikipedia.org:443/wiki/Disc_golf_in_the_United_States:250,https://en.wikipedia.org:443/wiki/Sergeant_at_Arms_of_the_United_States_Senate:564 565 566,https://en.wikipedia.org:443/wiki/Greenhouse_gas_emissions_by_the_United_States:1041,https://en.wikipedia.org:443/wiki/Special_district_(United_States):425,https://www.ncaa.org:443/sb_output.aspx?form=28:58,https://www.nytimes.com:443/section/food:145,https://en.wikipedia.org:443/wiki/Boston_Red_Sox:2999,https://en.wikipedia.org:443/wiki/Beach_volleyball:1518,https://en.wikipedia.org:443/wiki/Sports_in_the_United_States:1216,https://en.wikipedia.org:443/wiki/NBA:1960,https://en.wikipedia.org:443/wiki/Fenway_Park:2698,https://nirsa.net:443/nirsa/:106,https://www.ncaa.org:443/sports/2021/5/3/membership-directory.aspx:71 72 73,https://web3.ncaa.org:443/directory/:13 14,https://www.purdue.edu:443/newsroom/releases/2016/Q3/purdue-university-sets-records-for-largest-enrollment-and-highest-graduation-rates-ever.html:103,http://www.oklegislature.gov:80/osStatuesTitle.aspx:27,https://en.wikipedia.org:443/wiki/Sports_in_Kentucky:1090 1091 1092 1093 1094 1095 1096 1097 1098 1099 1100 1101 1102 1103 1104 1105 1106 1107 1108 1109 1110 1111 1112 1113 1114 1115 1116 1117 1118 1119 1120 1121 1122 1123 1124 1125 1126 1127 1128 1129 1130 1131 1132 1133 1134 1135 1136 1137 1138 1139 1140 1141 1142 1143 1144 1145 1146 1147 1148 1149 1150 1151 1152 1153 1154 1155 1156 1157 1158 1159 1160 1161 1162 1163,https://en.wikipedia.org:443/wiki/Iroquois:3769,https://en.wikipedia.org:443/wiki/Speaker_of_the_United_States_House_of_Representatives:1299 1300 1301,https://www.ncaa.org:443/sports/2021/5/11/division-i-finances.aspx:88,https://www.law.cornell.edu:443/supremecourt/text/74/700:1610 1611,https://en.wikipedia.org:443/wiki/Boswell:190,https://en.wikipedia.org:443/wiki/ISSN_(identifier):369,https://www.ncaa.org:443/sports/2021/4/21/division-ii-academics.aspx:103,https://www.azcentral.com:443/story/sports/nfl/cardinals/2015/09/06/nfls-dynasties-decade/71605710/:193 