disclosur disclosur-0 1578 https://www.usatoday.com:443/for-subscribers/:74,https://theconversation.com:443/the-rise-and-rise-of-ultimate-fighting-and-why-boxing-is-now-so-passe-55910:149,https://en.wikipedia.org:443/wiki/Drug_Enforcement_Administration:1930,https://www.usatoday.com:443/story/news/politics/2022/08/04/krysten-sinema-inflation-reduction-act-senator-democrats-vote/10234906002/:122,https://www.usatoday.com:443/story/sports/mlb/2016/11/03/world-series-tv-television-ratings-chicago-cubs-cleveland-indians/93231896/:67,https://en.wikipedia.org:443/wiki/War_in_Afghanistan_(2001%E2%80%932021):5785,https://en.wikipedia.org:443/wiki/Vietnam_War:5011,https://www.usatoday.com:443/story/sports/mlb/2013/08/11/fox-sports-1-versus-espn/2641247/:254,https://www.usatoday.com:443/news/nation/:86,https://en.wikipedia.org:443/wiki/The_Washington_Post:1673,https://en.wikipedia.org:443/wiki/Supreme_Court_of_the_United_States:5259 5260,https://www.usatoday.com:443/story/sports/winter-olympics-2018/2018/02/13/medalists-2018-winter-olympics-get-precious-keepsake-and-medal/332267002/:67,https://en.wikipedia.org:443/wiki/Boston:4335,https://www.saturdaydownsouth.com:443/sports/ranking-top-25-rivalries-college-sports-2023/:474,https://www.usatoday.com:443/story/sports/soccer/2017/02/02/nwsl-matches-will-be-shown-on-lifetime-each-saturday/97394336/:85,https://www.telegraph.co.uk:443/news/worldnews/asia/afghanistan/8693247/Secret-peace-talks-between-US-and-Taliban-collapse-over-leaks.html:175,https://www.azcentral.com:443/story/sports/nfl/cardinals/2015/09/06/nfls-dynasties-decade/71605710/:194 