doomsdai doomsdai-0 199 https://www.nytimes.com:443/section/theater:141,https://www.nytimes.com:443/column/out-there:87,https://www.azcentral.com:443/story/sports/nfl/cardinals/2015/09/06/nfls-dynasties-decade/71605710/:200 