doorstep doorstep-0 260 https://www.azcentral.com:443/story/sports/nfl/cardinals/2015/09/06/nfls-dynasties-decade/71605710/:202,https://www.nytimes.com:443/2024/04/27/opinion/left-right-happiness.html:163,https://www.nytimes.com:443/2024/04/17/opinion/venezuela-oil-sanctions.html:174 