door door-0 3756 https://en.wikipedia.org:443/wiki/United_States_federal_civil_service:685 686,https://www.independent.co.uk:443/extras/indybest/house-garden:320,https://en.wikipedia.org:443/wiki/Iroquois:3914 3915 3916,https://en.wikipedia.org:443/wiki/Bureau_of_Diplomatic_Security:1442,https://www.nytimes.com:443/section/arts/television?page=3:217,https://www.nytimes.com:443/2024/04/18/t-magazine/chalet-des-iles-paris-restaurant.html:386 387,https://www.nytimes.com:443/2024/05/03/opinion/nuclear-power-energy.html:207,https://en.wikipedia.org:443/wiki/Sergeant_at_Arms_of_the_United_States_Senate:584 585 601,https://en.wikipedia.org:443/wiki/Professional_boxer:618,https://www.cnn.com:443/2020/09/26/politics/supreme-court-conservative/index.html:459,https://www.nytimes.com:443/2023/04/14/us/politics/mike-pompeo-president-2024.html:160,https://www.nytimes.com:443/2024/04/29/realestate/renters-astoria-queens.html:223,https://www.nytimes.com:443/interactive/2024/03/28/travel/things-to-do-mumbai.html:425,https://www.nytimes.com:443/2024/05/03/style/modern-love-we-didnt-know-it-was-the-last-time.html:188,https://en.wikipedia.org:443/wiki/Cold_War:5709,https://en.wikipedia.org:443/wiki/Articles_of_Confederation:2371,https://en.wikipedia.org:443/wiki/Supreme_Court_of_the_United_States:5420,https://www.nytimes.com:443/2024/04/24/podcasts/laufey-gen-zs-jazz-icon-sings-for-anxious-generation.html:425,https://en.wikipedia.org:443/wiki/Town_meeting:791,https://www.nytimes.com:443/2024/05/04/business/energy-environment/tesla-electric-vehicles-supercharger.html:319,https://en.wikipedia.org:443/wiki/Speaker_of_the_United_States_House_of_Representatives:1346 1347 1350,https://en.wikipedia.org:443/wiki/Architecture_of_the_United_States:1892 1893,https://www.nytimes.com:443/books/best-sellers/:697,https://en.wikipedia.org:443/wiki/Spanish%E2%80%93American_War:4365 4366 4367,https://en.wikipedia.org:443/wiki/Democratic_Party_(United_States):3889 3890 3891 3892,https://en.wikipedia.org:443/wiki/College_basketball:2055,https://www.nytimes.com:443/2024/05/04/opinion/alexandria-ocasio-cortez.html:395,https://en.wikipedia.org:443/wiki/Drug_Enforcement_Administration:2059,https://www.azcentral.com:443/story/sports/nfl/cardinals/2015/09/06/nfls-dynasties-decade/71605710/:201,https://en.wikipedia.org:443/wiki/National_Boxing_Association:1037,https://www.nytimes.com:443/spotlight/visual-investigations:483,https://www.nytimes.com:443/2024/05/02/us/politics/abortion-ballot-measures-2024.html:339,https://en.wikipedia.org:443/wiki/Vietnam_War:5195,https://en.wikipedia.org:443/wiki/Terrorism_in_the_United_States:3872 3873,https://en.wikipedia.org:443/wiki/War_in_Afghanistan_(2001%E2%80%932021):5913,https://www.nytimes.com:443/2017/06/26/health/undocumented-immigrants-health-care.html:311 312,https://en.wikipedia.org:443/wiki/Timeline_of_United_States_inventions_(after_1991):783 784 790,https://www.nytimes.com:443/video/us/100000007348445/breonna-taylor-death-cops.html:275 276 277 278 279 280 281,https://www.nytimes.com:443/subscription/home-delivery:32,https://www.theguardian.com:443/us-news/2019/dec/29/synagogue-stabbings-three-hurt-in-monsey-attack-say-reports:174,https://en.wikipedia.org:443/wiki/Colonial_history_of_the_United_States:3934,https://en.wikipedia.org:443/wiki/Sports_in_Ghana:795,https://www.theguardian.com:443/sport/2017/aug/19/will-mcgregor-v-mayweather-save-american-boxing-or-bury-it?CMP=share_btn_link:444,https://en.wikipedia.org:443/wiki/Agriculture_in_the_United_States:1642,https://en.wikipedia.org:443/wiki/Boston_Red_Sox:3101 3102,https://en.wikipedia.org:443/wiki/Culture_of_the_United_States:3300 3301,https://www.nytimes.com:443/wirecutter/:909 910 911 912 913,https://www.nytimes.com:443/section/arts/television:118 