draft draft-0 9442 https://en.wikipedia.org:443/wiki/MLB_Network:1245,https://www.nytimes.com:443/2024/05/02/opinion/israel-saudi-arabia.html:294,https://en.wikipedia.org:443/wiki/National_Football_League:1896 1897 1898 1899 1900 1901 1902 1903 1904 1905 1906 1907 1908 1909 1910 1911 1912 1913 1914 1915 1916 1917 1918 1919 1920 1921 1922 1923 1924 1925 1926 1927 1928 1929 1930 1931 1932 1933 1934 1935 1936 1937 1938 1939 1940 1941 1942 1943 1944 1946 1947 1948 1949 1950 1951 1952 1953 1954,https://en.wikipedia.org:443/wiki/Soccer_in_the_United_States:2336,https://en.wikipedia.org:443/wiki/College_basketball:2064 2065 2066 2067 2068 2069 2070 2071 2072 2073 2074,https://en.wikipedia.org:443/wiki/Agriculture_in_the_United_States:1649,https://www.nytimes.com:443/2024/04/29/learning/what-should-be-done-about-the-gender-pay-gap-in-sports.html:189 190 191 192 193 194 195 196,https://en.wikipedia.org:443/wiki/Education_in_the_United_States:2873,https://en.wikipedia.org:443/wiki/MLS:2725 2726,https://en.wikipedia.org:443/wiki/USA_Cricket:634,https://en.wikipedia.org:443/wiki/War_in_Afghanistan_(2001%E2%80%932021):5928 5929,https://www.patriots.com:443/news/check-out-the-2016-patriots-color-rush-jerseys-270621:279 280 281 282 283 284 285 286 287 288 289 290 291 292 293 294 295 296 297 298 299,https://dcp.psc.gov:443/ccbulletin/articles/Reserve_Update.aspx:88,https://en.wikipedia.org:443/wiki/Town_meeting:794,https://www.nytimes.com:443/section/fashion?page=9:684 685 686 687,https://en.wikipedia.org:443/wiki/Terrorism_in_the_United_States:3889 3890,https://en.wikipedia.org:443/wiki/Constitution_of_the_United_States:4265 4266 4267 4268 4269 4270 4271 4273 4274 4275 4276 4277 4278 4279 4280 4281 4282 4283 4284,https://www.nytimes.com:443/2024/04/01/fashion/craft-handmade-umbrella-italy.html:250 251,https://en.wikipedia.org:443/wiki/USA_Baseball:1959 1960 1961,https://www.azcentral.com:443/story/sports/nfl/cardinals/2015/09/06/nfls-dynasties-decade/71605710/:203,https://en.wikipedia.org:443/wiki/Baseball:2933 2934 2935,https://en.wikipedia.org:443/wiki/Fenway_Park:2794 2795 2796 2797,https://www.usatoday.com:443/story/sports/mlb/2016/11/03/world-series-tv-television-ratings-chicago-cubs-cleveland-indians/93231896/:69,https://en.wikipedia.org:443/wiki/Uniform_act:195 196 197 198,https://en.wikipedia.org:443/wiki/International_rankings_of_the_United_States:444,https://en.wikipedia.org:443/wiki/Colonial_history_of_the_United_States:3945 3946,https://en.wikipedia.org:443/wiki/Wikipedia:File_upload_wizard:486,https://en.wikipedia.org:443/wiki/ISSN_(identifier):388,https://en.wikipedia.org:443/wiki/History_of_the_United_States_(2008%E2%80%93present):3379 3380 3381,https://en.wikipedia.org:443/wiki/Articles_of_Confederation:2380 2381 2382 2383 2384 2385 2387 2388 2389 2390 2391 2392 2393,https://en.wikipedia.org:443/wiki/Powers_of_the_president_of_the_United_States:982 983 984 985 986,https://en.wikipedia.org:443/wiki/American_exceptionalism:1865,https://www.commanders.com:443/news/commanders-agree-to-trade-de-montez-sweat-to-chicago-bears:160 161 162 163 164 165 166 167 168 169 170 171 172,https://en.wikipedia.org:443/wiki/Sports_in_Washington:1243 1244 1245 1246,https://en.wikipedia.org:443/wiki/List_of_U.S._states_and_territories_by_life_expectancy:615,https://www.saturdaydownsouth.com:443/sports/ranking-top-25-rivalries-college-sports-2023/:486 487 508 509 510,https://www.nfl.com:443/teams/baltimore-ravens/:179 180 181 182 183 184 185 186 187 188 189 190 191 192,https://en.wikipedia.org:443/wiki/New_England_Patriots:3543 3544 3545 3546 3547 3548 3549 3550 3551 3552 3553 3554 3555 3556 3557 3558 3559 3560 3561 3562 3563 3564 3565 3566 3567 3568 3569,https://www.nytimes.com:443/spotlight/graphics?page=10:676,https://en.wikipedia.org:443/wiki/History_of_the_United_States_(1849%E2%80%931865):1610,https://www.sportsbusinessjournal.com:443/Daily/Issues/2024/04/29.aspx:286 287 288 289,https://en.wikipedia.org:443/wiki/Literacy_in_the_United_States:1563 1564 1565 1566,https://en.wikipedia.org:443/wiki/United_States_dollar:2623 2624,https://www.usatoday.com:443/story/sports/soccer/2017/02/02/nwsl-matches-will-be-shown-on-lifetime-each-saturday/97394336/:88,https://www.nytimes.com:443/section/fashion:330 331,https://www.nytimes.com:443/by/mark-landler:123,https://en.wikipedia.org:443/wiki/Carlos_Bocanegra:910 911 912,https://www.patriots.com:443/cheerleaders/pat-patriot:192,https://en.wikipedia.org:443/wiki/Democratic_Party_(United_States):3905 3906 3907 3908,https://en.wikipedia.org:443/wiki/Sports_in_France:635,https://en.wikipedia.org:443/wiki/History_of_the_United_States_(1945%E2%80%931964):2458 2459,https://www.nytimes.com:443/2024/05/04/nyregion/trump-trial-scandals-testimony.html:405,https://en.wikipedia.org:443/wiki/Cold_War:5726 5727,https://www.nytimes.com:443/2021/07/07/style/how-the-french-manicure-made-its-comeback.html:175 176,https://en.wikipedia.org:443/wiki/Ice_hockey:1734,https://www.nytimes.com:443/live/2024/05/04/us/college-campus-protests:958,https://en.wikipedia.org:443/wiki/Spanish%E2%80%93American_War:4380 4381 4382,https://en.wikipedia.org:443/wiki/Boston_Red_Sox:3127 3128 3129 3130,https://en.wikipedia.org:443/wiki/American_Revolution:4830 4831 4832 4833 4834 4835 4836 4837 4839 4840 4841 4842,https://www.nfl.com:443/teams/indianapolis-colts/:175 176 177 178 179 180 181 182 183 184 185 186,https://en.wikipedia.org:443/wiki/Sports_in_the_United_States:1264 1265 1266,https://en.wikipedia.org:443/wiki/National_League_(baseball):1093,https://www.nfl.com:443/standings/:242 243 244 245 246,https://en.wikipedia.org:443/wiki/NBA:2021 2022 2023 2024 2025 2026 2027 2028 2029 2030 2031 2032 2033 2034 2035 2036 2037 2041 2042,https://en.wikipedia.org:443/wiki/Great_Recession_in_the_United_States:1471 1472,https://en.wikipedia.org:443/wiki/Inter_Miami:1964,https://www.patriots.com:443/team/players-roster/:203 204 205 206 207 208 209 210 211 212 213,https://en.wikipedia.org:443/wiki/Supreme_Court_of_the_United_States:5434 5435 5436 5438 5439 5440,https://en.wikipedia.org:443/wiki/Category:Use_mdy_dates_from_October_2023:286,https://en.wikipedia.org:443/wiki/Vietnam_War:5229 5230 5231 5232 5233 5234 5235 5236,https://en.wikipedia.org:443/wiki/American_League:682,https://www.nytimes.com:443/2022/02/11/sports/horse-racing/medina-spirit-kentucky-derby-necropsy.html?searchResultPosition=2:212,https://en.wikipedia.org:443/wiki/History_of_the_United_States_debt_ceiling:915,https://en.wikipedia.org:443/wiki/Outline_of_the_history_of_the_United_States:1326,https://www.independent.co.uk:443/sport/us-sport/nba/draft-2020-what-time-start-uk-b1725070.html:191 192 193 194 195 196 197 198 199 200 201 202 203 204 205 206 207,https://en.wikipedia.org:443/wiki/Perpetual_Union:1026 1027 1030 1031 1032 1033 1034 1035,https://www.nfl.com:443/standings/conference/2023/REG:216 217 218 219 220,https://www.nytimes.com:443/2005/09/18/opinion/conventional-wisdom.html:163,https://en.wikipedia.org:443/wiki/Architecture_of_the_United_States:1904,https://en.wikipedia.org:443/wiki/National_symbols_of_the_United_States:458,https://en.wikipedia.org:443/wiki/U.S._state:1524 1525,https://en.wikipedia.org:443/wiki/WNBA%27s_Top_15_Team:205 206,https://en.wikipedia.org:443/wiki/Sports_in_Maryland:1627 1628 1629 1630 1631,https://en.wikipedia.org:443/wiki/New_England:2716 2717,https://www.usatoday.com:443/story/sports/mlb/2013/08/11/fox-sports-1-versus-espn/2641247/:260,https://en.wikipedia.org:443/wiki/United_States_Declaration_of_Independence:3320 3321 3322 3323 3324 3325 3326 3327 3328 3329 3330 3331 3332 3333 3334 3335 3336 3337 3338 3339 3340 3341 3342 3343 3344 3345 3346 3347 3348 3349 3350 3351 3352 3353 3356 3357 3358 3359 3360 3361 3362 3363 3364 3365 3366 3367 3368 3369 3370 3371,https://en.wikipedia.org:443/wiki/Columbia_(personification):889,https://en.wikipedia.org:443/wiki/West_Coast_of_the_United_States:995,https://en.wikipedia.org:443/wiki/2023_Big_Ten_Conference_football_season:1373 1374 1375 1376 1377 1378 1379 1380 1381 1382 1383 1384 1385 1386 1387 1388,https://en.wikipedia.org:443/wiki/Timeline_of_United_States_inventions_(after_1991):793,https://www.nytimes.com:443/section/sports:82 83,https://www.nfl.com:443/teams/seattle-seahawks/:162 163 164 165 166 167 168 169 170 171 172 173,https://www.nytimes.com:443/2024/05/04/style/nonalcoholic-drinks-kids-mocktail.html:198 199,https://en.wikipedia.org:443/wiki/Southern_United_States:3571,https://www.patriots.com:443/news/ben-coates-elected-to-patriots-hall-of-fame-140866:351 352 353 354 355 356 357 358 359 360 361 362 363 364 365 366 367 368 369 370,https://www.nfl.com:443/teams/philadelphia-eagles/:165 166 167 168 169 170 171 172 173 174 175,https://en.wikipedia.org:443/wiki/Sports_in_India:4184 4185 4186,https://www.nytimes.com:443/2024/05/03/nyregion/trump-trial-hope-hicks-takeaways.html:238,https://www.packers.com:443/community/shareholders:149 150,https://www.forbes.com:443/sites/zachslaton/2012/10/15/how-the-mls-playoff-format-punishes-ambitious-teams/:240,https://en.wikipedia.org:443/wiki/Culture_of_the_United_States:3311 3312 3313,https://www.usatoday.com:443/story/sports/winter-olympics-2018/2018/02/13/medalists-2018-winter-olympics-get-precious-keepsake-and-medal/332267002/:69,https://en.wikipedia.org:443/wiki/Iroquois:3929,https://en.wikipedia.org:443/wiki/Fashion_in_the_United_States:551,https://en.wikipedia.org:443/wiki/Drug_Enforcement_Administration:2065 