drove drove-0 1728 https://www.nytimes.com:443/interactive/2023/us/politics/presidential-candidates-2024.html:179,https://www.azcentral.com:443/story/sports/nfl/cardinals/2015/09/06/nfls-dynasties-decade/71605710/:204,https://en.wikipedia.org:443/wiki/Summer_Olympic_Games:1407,https://en.wikipedia.org:443/wiki/Spanish%E2%80%93American_War:4395,https://en.wikipedia.org:443/wiki/American_Revolution:4869,https://en.wikipedia.org:443/wiki/War_in_Afghanistan_(2001%E2%80%932021):5972 5973,https://en.wikipedia.org:443/wiki/History_of_the_United_States_(1945%E2%80%931964):2480,https://www.nytimes.com:443/2024/05/03/style/modern-love-we-didnt-know-it-was-the-last-time.html:191,https://en.wikipedia.org:443/wiki/Culture_of_the_United_States:3352,https://www.nytimes.com:443/2017/06/26/health/undocumented-immigrants-health-care.html:320,https://www.theguardian.com:443/us-news/2019/dec/29/synagogue-stabbings-three-hurt-in-monsey-attack-say-reports:177,https://cooking.nytimes.com:443/recipes/1016295-mint-julep:481,https://en.wikipedia.org:443/wiki/Colonial_history_of_the_United_States:3965,https://en.wikipedia.org:443/wiki/History_of_the_United_States_(2008%E2%80%93present):3409,https://en.wikipedia.org:443/wiki/Iroquois:3953 3954,https://www.nytimes.com:443/2024/05/02/us/blast-mortar-brain-injury-military.html:381 382 383,https://en.wikipedia.org:443/wiki/Jack_Nicklaus:2247,https://en.wikipedia.org:443/wiki/Constitution_of_the_United_States:4301,https://www.nytimes.com:443/2024/04/24/us/palestinian-family-gaza-war-death.html:492 493 494,https://en.wikipedia.org:443/wiki/Cold_War:5746,https://en.wikipedia.org:443/wiki/Terrorism_in_the_United_States:3910 3911,https://en.wikipedia.org:443/wiki/Great_Recession_in_the_United_States:1481 