dwight dwight-0 1953 https://millercenter.org:443/president/adams/essays/clay-1825-secretary-of-state:187 188,https://en.wikipedia.org:443/wiki/History_of_the_United_States_(1945%E2%80%931964):2502 2503 2504 2505 2506 2507 2508 2509 2510 2511 2512 2513,https://en.wikipedia.org:443/wiki/Vietnam_War:5326 5327 5328 5329 5330 5331,https://www.nytimes.com:443/spotlight/podcasts?page=6:912,https://www.nytimes.com:443/section/science?page=9:712 713,https://en.wikipedia.org:443/wiki/2023_Big_Ten_Conference_football_season:1419,https://en.wikipedia.org:443/wiki/Democratic_Party_(United_States):3935,https://en.wikipedia.org:443/wiki/Associate_Justice_of_the_Supreme_Court_of_the_United_States:979,https://en.wikipedia.org:443/wiki/National_Reconnaissance_Office:1388,https://en.wikipedia.org:443/wiki/Boston_Red_Sox:3209 3210 3211 3212 3213,https://www.nytimes.com:443/section/books/review:173 174,https://en.wikipedia.org:443/wiki/American_Revolution:4909,https://www.nytimes.com:443/section/science:221 222,https://en.wikipedia.org:443/wiki/College_basketball:2105,https://en.wikipedia.org:443/wiki/Outline_of_the_history_of_the_United_States:1338 1339,https://en.wikipedia.org:443/wiki/National_Football_League:1966,https://en.wikipedia.org:443/wiki/Cold_War:5765 5766 5767,https://www.azcentral.com:443/story/sports/nfl/cardinals/2015/09/06/nfls-dynasties-decade/71605710/:205,https://en.wikipedia.org:443/wiki/Southern_United_States:3595,https://en.wikipedia.org:443/wiki/New_England:2741,https://www.nytimes.com:443/section/corrections?page=5:305 306,https://www.nytimes.com:443/spotlight/podcasts:615,https://en.wikipedia.org:443/wiki/Francis_Olympic_Field:578,https://news.gallup.com:443/vault/203270/gallup-vault-football-rise-spectator-sport.aspx:189,http://www.redsoxdiehard.com:80/players/unifnums.html:1453 1454 1455,https://www.nytimes.com:443/section/books/review?page=7:497 498 499,https://en.wikipedia.org:443/wiki/Supreme_Court_of_the_United_States:5466 5467 