dynam dynam-0 1810 https://nytlicensing.com:443/:323,https://en.wikipedia.org:443/wiki/American_exceptionalism:1883,https://en.wikipedia.org:443/wiki/Colonial_history_of_the_United_States:4005,https://en.wikipedia.org:443/wiki/Timeline_of_United_States_inventions_(after_1991):799,https://www.theguardian.com:443/sport/2017/aug/19/will-mcgregor-v-mayweather-save-american-boxing-or-bury-it?CMP=share_btn_link:454,https://en.wikipedia.org:443/wiki/Supreme_Court_of_the_United_States:5468,https://www.bbc.co.uk:443/news/world-asia-35169478:268,https://www.nytimes.com:443/2014/11/11/technology/obama-net-neutrality-fcc.html:226,https://en.wikipedia.org:443/wiki/Cold_War:5768,https://en.wikipedia.org:443/wiki/History_of_the_United_States_(1945%E2%80%931964):2514,https://www.azcentral.com:443/story/sports/nfl/cardinals/2015/09/06/nfls-dynasties-decade/71605710/:206,https://en.wikipedia.org:443/wiki/Articles_of_Confederation:2416,https://en.wikipedia.org:443/wiki/Literacy_in_the_United_States:1579,https://en.wikipedia.org:443/wiki/Iroquois:3982,https://en.wikipedia.org:443/wiki/Cable_television:1334,https://en.wikipedia.org:443/wiki/Town_meeting:801,https://www.forbes.com:443/sites/zachslaton/2012/10/15/how-the-mls-playoff-format-punishes-ambitious-teams/:241,https://www.indycar.com:443/news/2022/02/02-22-internationaltv:134,https://en.wikipedia.org:443/wiki/Disc_golf_in_the_United_States:353 354 355 356,https://www.nytimes.com:443/interactive/2024/02/01/magazine/israel-founding-palestinian-conflict.html:416,https://www.nytimes.com:443/column/op-docs:122,https://en.wikipedia.org:443/wiki/Sports_in_Sierra_Leone:170,https://www.nytimes.com:443/2024/04/24/podcasts/laufey-gen-zs-jazz-icon-sings-for-anxious-generation.html:438,https://advertising.nytimes.com:443/:79,https://en.wikipedia.org:443/wiki/Fenway_Park:2842 