dynasti dynasti-0 1112 https://en.wikipedia.org:443/wiki/Southern_United_States:3599,https://en.wikipedia.org:443/wiki/American_Revolution:4912,https://www.nytimes.com:443/books/best-sellers/mass-market-monthly/:256,https://en.wikipedia.org:443/wiki/Boston_Red_Sox:3214,https://en.wikipedia.org:443/wiki/NBA:2078 2079 2080 2081 2082,https://en.wikipedia.org:443/wiki/Antisemitism_in_the_United_States:1453,https://www.patriots.com:443/cheerleaders/pat-patriot:195,https://en.wikipedia.org:443/wiki/Sports_in_Georgia_(country):293,https://en.wikipedia.org:443/wiki/Constitution_of_the_United_States:4320 4321,https://en.wikipedia.org:443/wiki/The_Washington_Post:1743,https://en.wikipedia.org:443/wiki/New_England_Patriots:3606 3607 3608 3609 3610 3611 3612 3613 3614 3615 3616 3617 3618 3619 3620 3621 3622 3623 3624 3625 3626 3627 3628 3629,https://www.azcentral.com:443/story/sports/nfl/cardinals/2015/09/06/nfls-dynasties-decade/71605710/:207 208 209 210 211,https://en.wikipedia.org:443/wiki/Sports_in_Armenia:817,https://en.wikipedia.org:443/wiki/Cold_War:5769,https://en.wikipedia.org:443/wiki/Sports_in_Syria:562 563 564 565 566 