eater eater-0 633 https://en.wikipedia.org:443/wiki/Democratic_Party_(United_States):3966,https://en.wikipedia.org:443/wiki/The_Washington_Post:1754,https://www.azcentral.com:443/story/sports/nfl/cardinals/2015/09/06/nfls-dynasties-decade/71605710/:212,https://en.wikipedia.org:443/wiki/History_of_the_United_States_(1849%E2%80%931865):1655,https://cooking.nytimes.com:443/recipes/1023559-ina-gartens-bourbon-chocolate-pecan-pie:548,https://www.nytimes.com:443/2024/04/24/podcasts/laufey-gen-zs-jazz-icon-sings-for-anxious-generation.html:443,https://www.nytimes.com:443/spotlight/podcasts?page=6:919,https://www.nytimes.com:443/spotlight/podcasts:618 