edg edg-0 4851 https://en.wikipedia.org:443/wiki/Cold_War:6019,https://cooking.nytimes.com:443/:910,https://www.azcentral.com:443/story/sports/nfl/cardinals/2015/09/06/nfls-dynasties-decade/71605710/:213,https://en.wikipedia.org:443/wiki/Snowboarding:1084 1085 1086 1087 1088 1089 1090 1091 1092 1093 1094 1095 1096 1097 1098,https://en.wikipedia.org:443/wiki/Ice_hockey:1776,https://www.ft.com:443/content/03cc24ca-dc69-4bd6-8f2d-7509b0f6b6f1:378 379,https://www.nytimes.com:443/live/2024/01/19/world/israel-hamas-news/a-un-official-says-israeli-treatment-of-detainees-may-amount-to-torture?smid=url-share:917,https://en.wikipedia.org:443/wiki/Francis_Olympic_Field:585,https://www.patriots.com:443/news/check-out-the-2016-patriots-color-rush-jerseys-270621:309,https://www.patriots.com:443/cheerleaders/pat-patriot:198,https://www.nytimes.com:443/live/2024/05/04/world/israel-gaza-war-hamas:505,https://en.wikipedia.org:443/wiki/Professional_boxer:647,https://en.wikipedia.org:443/wiki/West_Coast_of_the_United_States:1026,https://www.businessinsider.com:443/guides/tech:400,https://cooking.nytimes.com:443/recipes/1024760-chocolate-layer-cake:694,https://en.wikipedia.org:443/wiki/History_of_the_United_States_(1849%E2%80%931865):1674,https://en.wikipedia.org:443/wiki/Boston:4588,https://www.patriots.com:443/team/players-roster/:222,https://en.wikipedia.org:443/wiki/Sports_in_the_United_States:1297,https://www.patriots.com:443/news/ben-coates-elected-to-patriots-hall-of-fame-140866:381 382,https://en.wikipedia.org:443/wiki/History_of_the_United_States_(1945%E2%80%931964):2606,https://www.nfl.com:443/standings/:257,https://www.nfl.com:443/teams/seattle-seahawks/:180,https://en.wikipedia.org:443/wiki/College_basketball:2133,https://en.wikipedia.org:443/wiki/NBA:2106,https://www.nytimes.com:443/interactive/2024/05/03/us/ucla-protests-encampment-violence.html:309 310,https://en.wikipedia.org:443/wiki/History_of_the_United_States_(2008%E2%80%93present):3493,https://www.nytimes.com:443/2021/07/07/style/how-the-french-manicure-made-its-comeback.html:181,https://www.commanders.com:443/news/commanders-agree-to-trade-de-montez-sweat-to-chicago-bears:176,https://www.nfl.com:443/teams/philadelphia-eagles/:195,https://en.wikipedia.org:443/wiki/Fenway_Park:2895 2896,https://www.nytimes.com:443/2023/11/21/dining/restaurant-review-bangkok-supper-club.html:315,https://cooking.nytimes.com:443/recipes/1023559-ina-gartens-bourbon-chocolate-pecan-pie:551 552,https://cooking.nytimes.com:443/recipes/1018626-eggs-benedict:543,https://www.nytimes.com:443/2024/05/03/style/modern-love-we-didnt-know-it-was-the-last-time.html:196,https://www.nytimes.com:443/2023/11/21/dining/restaurant-review-bangkok-supper-club.html?rref=collection%2Fcollection%2Frestaurant-guide:315,https://cooking.nytimes.com:443/recipes/1013611-rhubarb-upside-down-cake:612,https://www.packers.com:443/community/shareholders:153,https://en.wikipedia.org:443/wiki/2023_Big_Ten_Conference_football_season:1461,https://en.wikipedia.org:443/wiki/Municipal_council:968,https://www.nfl.com:443/standings/conference/2023/REG:229,https://www.nytimes.com:443/video/us/100000007348445/breonna-taylor-death-cops.html:299,https://en.wikipedia.org:443/wiki/Vietnam_War:5406,https://www.nytimes.com:443/2024/04/18/t-magazine/chalet-des-iles-paris-restaurant.html:400,https://www.businessinsider.com:443/s:186,https://www.nytimes.com:443/section/education:196,https://www.nytimes.com:443/live/2024/05/03/world/israel-gaza-war-hamas:497,https://spoiler.bolavip.com:443/en/celebrities/ryan-gosling-net-worth:148,https://en.wikipedia.org:443/wiki/Baseball:3007,https://en.wikipedia.org:443/wiki/Horse_racing_in_the_United_States:405 406,https://en.wikipedia.org:443/wiki/American_exceptionalism:1927 1928 1929,https://en.wikipedia.org:443/wiki/Democratic_Party_(United_States):4026 4027 4028,https://www.nytimes.com:443/by/liam-stack:97,https://www.nytimes.com:443/section/fashion?page=9:719,https://www.nfl.com:443/teams/baltimore-ravens/:199,https://cooking.nytimes.com:443/recipes/1024469-tomato-cheddar-toasts:504,https://www.nfl.com:443/teams/indianapolis-colts/:193,https://en.wikipedia.org:443/wiki/Soccer_in_the_United_States:2400,https://en.wikipedia.org:443/wiki/United_States_dollar:2731,https://www.nytimes.com:443/section/corrections?page=5:308,https://www.nytimes.com:443/privacy/cookie-policy:203 204,https://www.nytimes.com:443/news-event/2024-election:174,https://www.nytimes.com:443/2024/05/02/opinion/israel-saudi-arabia.html:308,https://en.wikipedia.org:443/wiki/United_States_men%27s_national_soccer_team:2482 2483,https://en.wikipedia.org:443/wiki/Boston_Red_Sox:3287,https://www.nytimes.com:443/2024/04/01/fashion/craft-handmade-umbrella-italy.html:259 260,https://en.wikipedia.org:443/wiki/Beach_volleyball:1588,https://en.wikipedia.org:443/wiki/Iroquois:4079 4080 4081 4082 4083 4084 