ego ego-0 440 https://en.wikipedia.org:443/wiki/New_England_Patriots:3697 3698,https://www.azcentral.com:443/story/sports/nfl/cardinals/2015/09/06/nfls-dynasties-decade/71605710/:215,https://www.nytimes.com:443/es/:379,https://en.wikipedia.org:443/wiki/Constitution_of_the_United_States:4390,https://en.wikipedia.org:443/wiki/Drug_Enforcement_Administration:2300,https://www.nytimes.com:443/by/mark-landler:126,https://www.nytimes.com:443/wirecutter/:982 