england england-0 14317 https://www.nytimes.com:443/2024/05/04/opinion/trump-second-term-illiberalism.html:319,https://en.wikipedia.org:443/wiki/History_of_the_United_States_(2008%E2%80%93present):3719 3720 3721,https://en.wikipedia.org:443/wiki/Columbia_(personification):967 968 969,https://en.wikipedia.org:443/wiki/Drug_Enforcement_Administration:2423,https://www.nfl.com:443/teams/indianapolis-colts/:198 199,https://en.wikipedia.org:443/wiki/Culture_of_the_United_States:3609 3610 3611 3612 3613 3614 3615 3616 3617 3618 3619 3620 3621 3622 3623 3624,https://www.nytimes.com:443/live/2024/05/03/world/israel-gaza-war-hamas:518,https://en.wikipedia.org:443/wiki/Spanish%E2%80%93American_War:4763 4764 4765 4766 4767 4768 4769,https://en.wikipedia.org:443/wiki/Portal:Current_events:849,https://en.wikipedia.org:443/wiki/History_of_the_United_States_debt_ceiling:974,https://en.wikipedia.org:443/wiki/2018_Rugby_World_Cup_Sevens:307 308 309 310 311 312 313 314,https://en.wikipedia.org:443/wiki/U.S._Squash:227 228,https://en.wikipedia.org:443/wiki/Sports_in_Poland:715,https://en.wikipedia.org:443/wiki/National_Football_League:2050 2051 2052 2053 2054,https://en.wikipedia.org:443/wiki/List_of_current_United_States_district_judges:4254,https://en.wikipedia.org:443/wiki/Northern_United_States:249 250,https://en.wikipedia.org:443/wiki/Independent_city_(United_States):511 512 513 514,https://www.azcentral.com:443/story/sports/nfl/cardinals/2015/09/06/nfls-dynasties-decade/71605710/:220,https://www.nytimes.com:443/2024/05/03/arts/television/jimmy-kimmel-donald-trump-trial.html:119,https://en.wikipedia.org:443/wiki/Democratic_Party_(United_States):4310,https://en.wikipedia.org:443/wiki/Town_meeting:909 910 911 912 913 914 915 916 917 918 919 920 921 922 923 924 925 926 927 928 929 930 931 932,https://www.theguardian.com:443/us/soccer:274,https://en.wikipedia.org:443/wiki/Carlos_Bocanegra:966 967 968 969 970,https://www.nytimes.com:443/section/health?page=7:621 622,https://en.wikipedia.org:443/wiki/Articles_of_Confederation:2522 2523 2524,https://en.wikipedia.org:443/wiki/Great_Recession_in_the_United_States:1661 1662 1663,https://en.wikipedia.org:443/wiki/United_States_Polo_Association:423,https://en.wikipedia.org:443/wiki/List_of_U.S._states_and_territories_by_life_expectancy:665,https://en.wikipedia.org:443/wiki/War_in_Afghanistan_(2001%E2%80%932021):6302,https://en.wikipedia.org:443/wiki/Indiana:2938 2939 2940,https://en.wikipedia.org:443/wiki/Iroquois:4285 4286 4287 4288 4289 4290 4291,https://en.wikipedia.org:443/wiki/Baseball:3074 3075 3076 3077 3078,https://en.wikipedia.org:443/wiki/Jack_Nicklaus:2421 2422,https://en.wikipedia.org:443/wiki/Consolidated_city-county:1428 1429,https://en.wikipedia.org:443/wiki/2023_Big_Ten_Conference_football_season:1536 1537 1538 1539,https://www.forbes.com:443/2008/09/09/mls-soccer-beckham-biz-sports-cz_kb_0909mlsvalues.html:120,https://www.fmfstateofmind.com:443/:223 224,https://en.wikipedia.org:443/wiki/United_States_dollar:2837 2838,https://en.wikipedia.org:443/wiki/Sports_in_the_United_States:1359 1360 1361,https://www.nytimes.com:443/by/pamela-paul:117,https://en.wikipedia.org:443/wiki/Soccer_in_the_United_States:2501 2502 2503 2504 2505 2506 2507 2508 2509 2510 2511,https://www.nytimes.com:443/spotlight/podcasts?page=6:977,https://en.wikipedia.org:443/wiki/Ice_hockey:1874,https://en.wikipedia.org:443/wiki/Fenway_Park:2991 2992 2993 2994 2995 2996 2997 2998 2999 3000 3001 3002 3003 3004 3005 3006 3007 3008,https://www.nytimes.com:443/by/mark-landler:136,https://www.nytimes.com:443/2019/06/19/us/newsom-native-american-apology.html:265,https://en.wikipedia.org:443/wiki/United_States_Reports:299,https://en.wikipedia.org:443/wiki/Special_district_(United_States):584 585 586 587 588,https://en.wikipedia.org:443/wiki/Immigrant_health_care_in_the_United_States:1803 1804 1805,https://en.wikipedia.org:443/wiki/Fashion_in_the_United_States:611 612,https://en.wikipedia.org:443/wiki/Sports_in_Namibia:316,https://en.wikipedia.org:443/wiki/History_of_the_United_States_(1945%E2%80%931964):2837 2838,https://en.wikipedia.org:443/wiki/Template_talk:United_States_topics:666 667 668,https://www.nytimes.com:443/section/books/review?page=7:525 526 527,https://www.nytimes.com:443/section/science?page=9:776,https://en.wikipedia.org:443/wiki/U.S._state:1661 1662 1663,https://en.wikipedia.org:443/wiki/New_England_Patriots:3776 3777 3778 3779 3780 3781 3782 3783 3784 3785 3786 3787 3788 3789 3790 3791 3792 3793 3794 3795 3796 3797 3798 3799 3800 3801 3802 3803 3804 3805 3806 3807 3808 3809 3810 3811 3812 3813 3814 3815 3816 3817 3818 3819 3820 3821 3822 3823 3824 3825 3826 3827 3828 3829 3830 3831 3832 3833 3834 3835 3836 3837 3838 3839 3840 3841 3842 3843 3844 3845 3846 3847 3848 3849 3850 3851 3852 3853 3854 3855 3856 3857 3858 3859 3860 3861 3862 3863 3864 3865 3866 3867 3868 3869 3870 3871 3872 3873 3874 3875 3876 3877 3878 3879 3880 3881 3882 3883 3884 3885 3886 3887 3888 3889 3890 3891 3892 3893 3894 3895 3896 3897 3898 3899 3900 3901 3902 3903 3904 3905 3906 3907 3908 3909 3910 3911 3912 3913 3914 3915,https://www.patriots.com:443/team/players-roster/:230 231 232 233,https://www.nytimes.com:443/2024/05/03/books/cj-sansom-dead.html:253 254 255 256 257 258 259,https://en.wikipedia.org:443/wiki/Sports_in_Washington:1389,https://en.wikipedia.org:443/wiki/Olympic_Games:3309 3310 3311,https://www.nfl.com:443/teams/seattle-seahawks/:185 186,https://en.wikipedia.org:443/wiki/Perpetual_Union:1113 1114 1115 1116 1117,https://en.wikipedia.org:443/wiki/Volleyball:1604 1605 1606,https://en.wikipedia.org:443/wiki/American_Sign_Language:2001 2002 2003,https://en.wikipedia.org:443/wiki/Education_in_the_United_States:3552 3553 3554 3555 3556,https://en.wikipedia.org:443/wiki/Rugby_union_at_the_Summer_Olympics:529 530,https://www.patriots.com:443/news/ben-coates-elected-to-patriots-hall-of-fame-140866:405 406 407 408 409 410 411 412 413 414 415,https://en.wikipedia.org:443/wiki/Cold_War:6307 6308 6309,https://www.thetimes.co.uk:443/article/susan-hall-tory-mayoral-candidate-liked-tweet-praising-enoch-powell-zqsr6lvfk:106,https://www.sbnation.com:443/2014/10/5/6916597/nba-new-tv-deal-espn-turner-24-billion:210,https://en.wikipedia.org:443/wiki/Southern_United_States:3907 3908 3909 3910 3911 3912 3913,https://www.nfl.com:443/standings/conference/2023/REG:234 235 236,https://en.wikipedia.org:443/wiki/Colonial_history_of_the_United_States:4384 4385 4386 4387 4388 4389 4390 4391 4392 4393 4394 4395 4396 4397 4398 4399 4400 4401 4402 4403 4404 4405 4406 4407 4408 4409 4410 4411 4412 4413 4414 4415 4416 4417 4418 4419 4420 4421 4422 4423 4424 4425 4426 4427 4428 4429 4430 4431 4432 4433 4434 4435 4436 4437 4438 4439 4440 4441 4442 4443 4444 4445 4446 4447 4448 4449 4450 4451 4452 4453 4454 4455 4456 4457 4458 4459 4460 4461 4462 4463 4464 4465 4466 4467 4468 4469 4470 4471 4472 4473 4474 4475 4476 4477 4478 4479 4480 4481 4482 4483 4484 4485 4486 4487 4488 4489 4490 4491 4492,https://en.wikipedia.org:443/wiki/Terrorism_in_the_United_States:4056,https://en.wikipedia.org:443/wiki/West_Coast_of_the_United_States:1081 1082 1083,https://www.law.cornell.edu:443/supremecourt/text/74/700:1748 1749,https://en.wikipedia.org:443/wiki/Henley_Royal_Regatta:1211 1212 1213 1214 1215 1216 1217 1218,https://en.wikipedia.org:443/wiki/International_rankings_of_the_United_States:517,https://en.wikipedia.org:443/wiki/United_States_men%27s_national_soccer_team:2580 2581 2582 2583 2584 2585 2586 2587 2588 2589 2590 2591 2592 2593 2594 2595 2596 2597 2598 2599 2600,https://en.wikipedia.org:443/wiki/American_Revolution:5224 5225 5226 5227 5228 5229 5230 5231 5232 5233 5234 5235 5236 5237 5238 5239 5240 5241 5242 5243 5244 5245 5246 5247 5248 5249 5250 5251 5252 5253 5254 5255 5256 5257 5258 5259 5260 5261 5262 5263 5264 5265 5266 5267 5268,https://en.wikipedia.org:443/wiki/National_symbols_of_the_United_States:505,https://en.wikipedia.org:443/wiki/Sports_in_Finland:779,https://en.wikipedia.org:443/wiki/Outline_of_the_history_of_the_United_States:1488 1489 1490 1491 1492 1493 1494 1495 1496 1497 1498 1499 1500 1501 1502 1503 1504 1505 1506 1507 1508 1509 1510 1511 1512,https://en.wikipedia.org:443/wiki/Sports_in_Armenia:866,https://en.wikipedia.org:443/wiki/Timeline_of_United_States_inventions:88,https://www.nfl.com:443/teams/philadelphia-eagles/:200 201,https://en.wikipedia.org:443/wiki/Timeline_of_United_States_inventions_(after_1991):878 879,https://en.wikipedia.org:443/wiki/Architecture_of_the_United_States:2119 2120 2121 2122 2123 2124 2125 2126,https://www.nfl.com:443/teams/baltimore-ravens/:204 205,https://en.wikipedia.org:443/wiki/Boston_Red_Sox:3350 3351 3352 3353 3354 3355 3356 3357 3358 3359 3360 3361 3362 3363 3364 3365 3366 3367 3368 3369,https://en.wikipedia.org:443/wiki/United_States_Declaration_of_Independence:3564 3565 3566 3567 3568 3569,https://www.nytimes.com:443/section/books/review:189,https://en.wikipedia.org:443/wiki/Prescription_drug_prices_in_the_United_States:2139 2140,https://en.wikipedia.org:443/wiki/Major_professional_sports_teams_of_the_United_States_and_Canada:592 593,https://www.businessinsider.com:443/real-estate:403,https://en.wikipedia.org:443/wiki/Literacy_in_the_United_States:1891 1892,https://www.patriots.com:443/cheerleaders/pat-patriot:206 207 208 209 210 211 212 213 214,https://www.nytimes.com:443/spotlight/podcasts:659,https://en.wikipedia.org:443/wiki/Sports_in_Ghana:870,https://www.nytimes.com:443/2024/05/04/world/europe/uk-rishi-sunak-conservatives-elections.html:283 284 285,https://en.wikipedia.org:443/wiki/Hawaiian_home_land:260,https://www.nytimes.com:443/section/sports:90,https://www.almanac.com:443/fact/how-much-is-two-bits-and-where:83,https://www.nytimes.com:443/section/obituaries:220,https://en.wikipedia.org:443/wiki/Sports_in_France:699 700 701 702,https://en.wikipedia.org:443/wiki/Sports_in_Georgia_(country):326,https://en.wikipedia.org:443/wiki/Francis_Olympic_Field:604 605 606,https://en.wikipedia.org:443/wiki/Sports_in_Estonia:504,https://en.wikipedia.org:443/wiki/Inter_Miami:2080 2081 2082 2083 2084 2085,https://en.wikipedia.org:443/wiki/Constitution_of_the_United_States:4562 4563 4564 4565 4566,https://www.nytimes.com:443/spotlight/the-great-read:77,https://en.wikipedia.org:443/wiki/Fox_Sports_1:1332,https://en.wikipedia.org:443/wiki/MLS:2890 2891 2892 2893 2894 2895 2896 2897 2898 2899 2900,https://en.wikipedia.org:443/wiki/Agriculture_in_the_United_States:1825 1826 1827 1828 1829,https://en.wikipedia.org:443/wiki/Municipal_council:1059 1060 1061 1062,https://en.wikipedia.org:443/wiki/College_basketball:2213 2214 2215,https://en.wikipedia.org:443/wiki/History_of_the_United_States_(1849%E2%80%931865):1796 1797 1798 1799 1800 1801,https://www.cookingchanneltv.com:443/recipes/tia-mowry/spaghetti-and-turkey-meatballs-2803024:280,https://en.wikipedia.org:443/wiki/Race_and_maternal_health_in_the_United_States:1242,https://www.nfl.com:443/standings/:262 263 264,https://en.wikipedia.org:443/wiki/USA_Cricket:699,https://en.wikipedia.org:443/wiki/Sports_in_Brunei:762,https://en.wikipedia.org:443/wiki/American_exceptionalism:2058 2059 2060,https://www.sportsbusinessjournal.com:443/Archive/Sections/International.aspx:321,https://en.wikipedia.org:443/wiki/Tribal_sovereignty_in_the_United_States:1363 1364 1365,https://en.wikipedia.org:443/wiki/Maternal_mortality_in_the_United_States:1466 1467,https://en.wikipedia.org:443/wiki/NBA:2145 2146,https://en.wikipedia.org:443/wiki/Gymnastics_in_the_United_States:596 597,https://en.wikipedia.org:443/wiki/Supreme_Court_of_the_United_States:5735 5736 5737 5738,https://bolavip.com:443/en:221 222,https://www.theguardian.com:443/sport/2004/jul/27/cricket.comment:263,https://en.wikipedia.org:443/wiki/Sports_in_Venezuela:749,https://en.wikipedia.org:443/wiki/Boston:4790 4791 4792 4793 4794 4795 4796 4797 4798 4799 4800 4801 4802 4803 4804 4805 4806 4807 4808 4809 4810 4811 4812 4813 4814 4815 4816 4817 4818 4819 4820 4821 4822 4823 4824 4825 4826 4827 4828 4829 4830 4831 4832 4833 4834 4835 4836 4837 4838 4839 4840 4841 4842 4843 4844 4845 4846 4847 4848,https://www.patriots.com:443/news/check-out-the-2016-patriots-color-rush-jerseys-270621:320 321 322 323 324 325 326 327 328 329 330 331 332 333 334 335 336 337,https://en.wikipedia.org:443/wiki/New_England:3010 3011 3012 3013 3014 3015 3016 3017 3018 3019 3020 3021 3022 3023 3024 3025 3026 3027 3028 3029 3030 3031 3032 3033 3034 3035 3036 3037 3038 3039 3040 3041 3042 3043 3044 3045 3046 3047 3048 3049 3050 3051 3052 3053 3054 3055 3056 3057 3058 3059 3060 3061 3062 3063 3064 3065 3066 3067 3068 3069 3070 3071 3072 3073 3074 3075 3076 3077 3078 3079 3080 3081 3082 3083 3084 3085 3086 3087 3088 3089 3090 3091 3092 3093 3094 3095 3096 3097 3098 3099 3100 3101 3102 3103 3104 3105 3106 3107 3108 3109 3110 3111 3112 3113 3114 3115 3116 3117 3118 3119 3120 3121 3122 3123 3124 3125 3126 3127 3128 3129 3130 3131 3132 3133 3134 3135 3136 3137 3138 3139 3140 3141 3142 3143 3144 3145 3146 3147 3148 3149 3150 3151 3152 3153 3154 3155 3156 3157 3158 3159 3160 3161 3162 3163 3164 3165 3166 3167 3168 3169 3170 3171 3172 3173 3174 3175 3176 3177 3178 3179 3180 3181 3182 3183 3184 3185 3186 3187 3188 3189 3190 3191 3192 3193 3194 3195 3196 3197 3198 3199 3200 3201 3202 3203 3204 3205 3206 3207 3208 3209 3210 3211 3212 3213 3214 3215 3216 3217 3218 3219 3220 3221 3222 3223 3224 3225 3226 3227 3228 3229 3230 3231 3232 3233 3234 3235 3236 3237 3238 3239 3240 3241 3242 3243 3244 3245 3246 3247 3248 3249 3250 3251 3252 3253 3254 3255 3256 3257 3258 3259 3260 3261 3262 3263 3264 3265 3266 3267 3268 3269 3270 3271 3272 3273 3274 3275 3276 3277 3278 3279 3280 3281 3282 3283 3284 3285 3286 3287 3288 3289 3290 3291 3292 3293 3294 3295 3296 3297 3298 3299 3300 3301 3302 3303 3304 3305 3306 3307 3308 3309 3310 3311 3312 3313 3314 3315 3316 3317 3318 3319 3320 3321 3322 3323 3324 3325 3326 3327 3328 3329 3330 3331 3332 3333 3334 3335 3336 3337 3338 3339 3340 3341 3342 3343 3344 3345 3346 3347 3348 3349 3350 3351 3352 3353 3354 3355 3356 3357 3358 3359 3360 3361 3362 3363 3364 3365 3366 3367 3368 3369 3370,https://en.wikipedia.org:443/wiki/Sports_in_India:4500 4501 4502 4503 4504 4505 4506,https://en.wikipedia.org:443/wiki/Mayoralty_in_the_United_States:289,https://en.wikipedia.org:443/wiki/USA_Baseball:2106 