er er-0 1582 https://www.nfl.com:443/teams/seattle-seahawks/:188 189,https://www.theguardian.com:443/world/2001/oct/27/afghanistan.terrorism6:220,https://www.nfl.com:443/standings/:266 267 268 269,https://en.wikipedia.org:443/wiki/New_England_Patriots:3998 3999 4000 4001 4002,https://www.espn.com:443/college-football/boxscore/_/gameId/401520200:100,https://www.independent.co.uk:443/sport/us-sport/nba/draft-2020-what-time-start-uk-b1725070.html:239 240 241 242 243 244 245 246 247,https://en.wikipedia.org:443/wiki/NBA:2167 2168 2169 2170 2171 2172 2173 2174 2175 2176,https://en.wikipedia.org:443/wiki/Agriculture_in_the_United_States:1863 1864,https://www.nytimes.com:443/2024/05/03/opinion/campus-protests-israel-gaza.html:680,https://www.nfl.com:443/standings/conference/2023/REG:238 239 240 241,https://en.wikipedia.org:443/wiki/2023_Big_Ten_Conference_football_season:1544,https://www.sbnation.com:443/2014/10/5/6916597/nba-new-tv-deal-espn-turner-24-billion:213 214,https://en.wikipedia.org:443/wiki/Sports_in_Washington:1399 1400 1401,https://en.wikipedia.org:443/wiki/Major_professional_sports_teams_of_the_United_States_and_Canada:606 607,https://www.azcentral.com:443/story/sports/nfl/cardinals/2015/09/06/nfls-dynasties-decade/71605710/:223 224 225 226,https://en.wikipedia.org:443/wiki/Fenway_Park:3027 3028 3029,https://www.nfl.com:443/teams/philadelphia-eagles/:204 205,https://www.nfl.com:443/teams/indianapolis-colts/:201 202,https://en.wikipedia.org:443/wiki/National_Football_League:2094 2095 2096 2097 2098 2099 2100,https://www.nfl.com:443/teams/baltimore-ravens/:208 209 