famer famer-0 911 https://en.wikipedia.org:443/wiki/Fenway_Park:3143 3144,https://en.wikipedia.org:443/wiki/USA_Baseball:2250,https://en.wikipedia.org:443/wiki/Professional_Disc_Golf_Association:483 484 485,https://en.wikipedia.org:443/wiki/New_England_Patriots:4192 4193 4194 4195 4196 4197 4198,https://www.nytimes.com:443/section/obituaries:235,https://en.wikipedia.org:443/wiki/NBA:2335 2336 2337,https://en.wikipedia.org:443/wiki/Boston_Red_Sox:3577 3578 3579 3580,https://www.patriots.com:443/news/ben-coates-elected-to-patriots-hall-of-fame-140866:484 485 486 487,https://en.wikipedia.org:443/wiki/Sports_in_Washington:1468,https://en.wikipedia.org:443/wiki/MLB_Network:1435 1436,https://en.wikipedia.org:443/wiki/Baseball:3268,https://www.azcentral.com:443/story/sports/nfl/cardinals/2015/09/06/nfls-dynasties-decade/71605710/:235 236 237 238 239 240 241 242 243,http://www.redsoxdiehard.com:80/players/unifnums.html:1563 