famou famou-0 6056 https://en.wikipedia.org:443/wiki/MLB_Network:1441,https://www.nytimes.com:443/slideshow/2007/12/27/obituaries/notable-obits-slideshow_index.html:18,https://en.wikipedia.org:443/wiki/Americans:3330,https://en.wikipedia.org:443/wiki/New_England_Patriots:4202,https://en.wikipedia.org:443/wiki/Iroquois:4778 4779 4780,https://www.nytimes.com:443/spotlight/podcasts:709,https://www.nytimes.com:443/spotlight/graphics?page=10:802,https://en.wikipedia.org:443/wiki/Sports_in_Venezuela:826 827,https://www.nytimes.com:443/section/theater:158,https://en.wikipedia.org:443/wiki/Constitution_of_the_United_States:4909,https://en.wikipedia.org:443/wiki/Culture_of_the_United_States:3926 3927 3928 3929 3930,https://en.wikipedia.org:443/wiki/United_States_Minor_Outlying_Islands:485 486 487 488,https://en.wikipedia.org:443/wiki/The_Washington_Post:2089 2090 2091 2092,https://www.nytimes.com:443/news-event/trump-ny-hush-money-case:201,https://en.wikipedia.org:443/wiki/Columbia_(personification):1032 1033,https://en.wikipedia.org:443/wiki/Sports_in_Kentucky:1418,https://en.wikipedia.org:443/wiki/West_Coast_of_the_United_States:1146,https://en.wikipedia.org:443/wiki/Sports_in_South_Carolina:642,https://www.nytimes.com:443/spotlight/nyt-events?page=2:226,https://en.wikipedia.org:443/wiki/History_of_the_United_States_(1849%E2%80%931865):1966 1967 1968 1969,https://en.wikipedia.org:443/wiki/Henley_Royal_Regatta:1372,https://www.azcentral.com:443/story/sports/nfl/cardinals/2015/09/06/nfls-dynasties-decade/71605710/:244,https://en.wikipedia.org:443/wiki/Education_in_the_United_States:3859,https://en.wikipedia.org:443/wiki/Sports_in_South_Korea:626,https://www.nytimes.com:443/section/nyregion?page=4:401,https://en.wikipedia.org:443/wiki/Basketball_in_the_United_States:372,https://www.nytimes.com:443/2024/04/18/t-magazine/chalet-des-iles-paris-restaurant.html:453,https://en.wikipedia.org:443/wiki/Professional_boxer:729 730 731,https://en.wikipedia.org:443/wiki/Sports_in_Belize:436 437 438,https://en.wikipedia.org:443/wiki/United_States_dollar:3053,https://www.nytimes.com:443/2024/05/03/opinion/campus-protests-israel-gaza.html:735 736 737,https://en.wikipedia.org:443/wiki/Sports_in_Yemen:452,https://en.wikipedia.org:443/wiki/United_States_Polo_Association:474,https://en.wikipedia.org:443/wiki/Sports_in_Poland:770 771 772 773,https://en.wikipedia.org:443/wiki/Sports_in_India:4815 4816,https://en.wikipedia.org:443/wiki/Sports_in_Cuba:521,https://www.nytimes.com:443/spotlight/nyt-events:170,https://www.nytimes.com:443/2024/05/03/theater/the-miser-review-brooklyn.html:151,https://en.wikipedia.org:443/wiki/Baseball:3270,https://www.nytimes.com:443/column/out-there:114,https://en.wikipedia.org:443/wiki/Inter_Miami:2225,https://en.wikipedia.org:443/wiki/Olympic_Games:3625 3626 3627,https://www.nytimes.com:443/section/books/review?page=7:571 572 573,https://en.wikipedia.org:443/wiki/Architecture_of_the_United_States:2304,https://en.wikipedia.org:443/wiki/Colonial_history_of_the_United_States:5052,https://www.nytimes.com:443/section/fashion:395,https://en.wikipedia.org:443/wiki/American_Revolution:5706,https://en.wikipedia.org:443/wiki/Vietnam_War:6096,https://cooking.nytimes.com:443/recipes/1016295-mint-julep:520,https://www.cookingchanneltv.com:443/:116 117,https://www.nytimes.com:443/2024/04/18/nyregion/trump-trial-jury-hush-money.html:192,https://en.wikipedia.org:443/wiki/Sports_in_Maryland:1874,https://www.nytimes.com:443/2022/02/11/sports/horse-racing/medina-spirit-kentucky-derby-necropsy.html?searchResultPosition=2:249,https://nytlicensing.com:443/content/harvard-health-publishing/:530,https://www.patriots.com:443/news/ben-coates-elected-to-patriots-hall-of-fame-140866:488,https://en.wikipedia.org:443/wiki/United_States_Declaration_of_Independence:3870 3871 3872 3873,https://en.wikipedia.org:443/wiki/Sports_in_Estonia:694 695,https://en.wikipedia.org:443/wiki/Boston_Red_Sox:3583 3584,https://en.wikipedia.org:443/wiki/Sports_in_Armenia:923,https://www.nytimes.com:443/spotlight/podcasts?page=6:1065,https://en.wikipedia.org:443/wiki/Sports_in_France:756 757,https://www.nytimes.com:443/section/t-magazine:331,https://en.wikipedia.org:443/wiki/American_League:796,https://www.nytimes.com:443/section/arts/design:158,https://www.nytimes.com:443/2024/05/02/business/horse-racing-deaths-kentucky-derby.html:472,https://www.patriots.com:443/news/check-out-the-2016-patriots-color-rush-jerseys-270621:378,https://en.wikipedia.org:443/wiki/United_States_Public_Health_Service_Commissioned_Corps:1019,https://en.wikipedia.org:443/wiki/Powers_of_the_president_of_the_United_States:1157 1158,https://en.wikipedia.org:443/wiki/Sports_in_Finland:873 874 875,https://www.nytimes.com:443/interactive/2024/04/25/nyregion/trump-trial-hush-money-payments.html:175,https://en.wikipedia.org:443/wiki/Speaker_of_the_United_States_House_of_Representatives:1622,https://www.nytimes.com:443/article/trump-hush-money-trial-transcripts.html:124,https://www.nytimes.com:443/2024/05/04/nyregion/trump-trial-scandals-testimony.html:491,https://en.wikipedia.org:443/wiki/New_England:3581 3582,https://theconversation.com:443/the-rise-and-rise-of-ultimate-fighting-and-why-boxing-is-now-so-passe-55910:210,https://en.wikipedia.org:443/wiki/National_League_(baseball):1272,https://en.wikipedia.org:443/wiki/Rugby_union_at_the_Summer_Olympics:588,https://www.nytimes.com:443/2024/05/03/nyregion/trump-trial-hope-hicks-takeaways.html:279,https://www.nytimes.com:443/2024/05/04/world/europe/sadiq-khan-london-mayor-results.html:227,https://en.wikipedia.org:443/wiki/History_of_the_United_States_(1945%E2%80%931964):3147 3148 3149 3150 3151 3152 3153 3154,https://en.wikipedia.org:443/wiki/Supreme_Court_of_the_United_States:6080 6081 6082 6083,https://en.wikipedia.org:443/wiki/Template_talk:United_States_topics:739,https://en.wikipedia.org:443/wiki/Sports_in_Namibia:343,https://en.wikipedia.org:443/wiki/Cold_War:6909 6910 6911,https://www.nytimes.com:443/section/fashion?page=9:826,https://en.wikipedia.org:443/wiki/Sports_in_the_United_States:1485 