feedback feedback-0 3017 https://www.themarshallproject.org:443/2022/06/14/what-did-fbi-data-say-about-crime-in-2021-it-s-too-unreliable-to-tell:489,https://www.cnn.com:443/2020/08/24/politics/muslim-ice-detainees-pork-meals/index.html:336 337 338 339 340 341 342 343,https://cooking.nytimes.com:443/recipes/1024760-chocolate-layer-cake:753,https://www.usatoday.com:443/story/news/politics/2022/08/04/krysten-sinema-inflation-reduction-act-senator-democrats-vote/10234906002/:157,https://cooking.nytimes.com:443/christmas:575 576,https://cooking.nytimes.com:443/:952,https://www.usatoday.com:443/story/sports/soccer/2017/02/02/nwsl-matches-will-be-shown-on-lifetime-each-saturday/97394336/:107,https://nytlicensing.com:443/timesdigest/:276 277,https://cooking.nytimes.com:443/recipes/1013611-rhubarb-upside-down-cake:649,https://cooking.nytimes.com:443/recipes/1018626-eggs-benedict:657,https://en.wikipedia.org:443/wiki/Forbes:690 691,https://www.usatoday.com:443/story/sports/mlb/2016/11/03/world-series-tv-television-ratings-chicago-cubs-cleveland-indians/93231896/:88,https://en.wikipedia.org:443/wiki/Wikipedia:File_upload_wizard:616,https://nytlicensing.com:443/content/harvard-health-publishing/:558 559,https://www.nytimes.com:443/interactive/2018/08/25/opinion/sunday/student-debt-loan-default-college.html:198,https://www.usatoday.com:443/for-subscribers/:93,https://cooking.nytimes.com:443/recipes/1022283-country-panzanella-with-watermelon-dressing:592,https://www.nytimes.com:443/video/op-docs:102,https://www.cnn.com:443/2020/09/26/politics/supreme-court-conservative/index.html:547 548 549 550 551 552 553 554 555 556 557 558 559 560 561 562 563 564 565 566 567 568 569 570 571,https://wtop.com:443/virginia/2020/01/virginia-becomes-38th-state-to-ratify-equal-rights-amendment-but-it-may-be-too-late/:263,https://www.azcentral.com:443/story/sports/nfl/cardinals/2015/09/06/nfls-dynasties-decade/71605710/:249,https://cooking.nytimes.com:443/recipes/1019333-millionaires-shortbread:601,https://cooking.nytimes.com:443/recipes/1023559-ina-gartens-bourbon-chocolate-pecan-pie:599,https://cooking.nytimes.com:443/recipes/1016295-mint-julep:532,https://www.usatoday.com:443/story/sports/mlb/2013/08/11/fox-sports-1-versus-espn/2641247/:331,https://www.nytimes.com:443/wirecutter/:1057,https://nytlicensing.com:443/magazines/:338 339,https://cooking.nytimes.com:443/recipes/1025421-creole-broiled-shrimp-and-baby-corn:384,https://cooking.nytimes.com:443/about-us:348,https://www.usatoday.com:443/news/nation/:113,https://cooking.nytimes.com:443/recipes/1024469-tomato-cheddar-toasts:539,https://ww2.arb.ca.gov:443/our-work/programs/low-carbon-fuel-standard/about:203,https://cooking.nytimes.com:443/topics/our-best-pasta-recipes:270 271,https://en.wikipedia.org:443/wiki/Timeline_of_United_States_inventions_(after_1991):981,https://www.usatoday.com:443/story/sports/winter-olympics-2018/2018/02/13/medalists-2018-winter-olympics-get-precious-keepsake-and-medal/332267002/:82,https://nytlicensing.com:443/license-our-content/:264 265 