field field-0 15735 https://en.wikipedia.org:443/wiki/Environmental_issues_in_the_United_States:1431 1432,https://en.wikipedia.org:443/wiki/Ice_hockey:2131 2132 2133 2134 2135 2136 2137 2138,https://en.wikipedia.org:443/wiki/Sports_in_Armenia:997 998 999 1000 1001,https://en.wikipedia.org:443/wiki/Jack_Nicklaus:2673 2674 2675 2676 2677,https://en.wikipedia.org:443/wiki/Sports_in_Kentucky:1441 1442 1443 1444 1445 1446 1447 1448 1449 1450 1451 1452 1453 1454 1456,https://en.wikipedia.org:443/wiki/Colonial_history_of_the_United_States:5176 5177 5178 5179 5180 5181,https://en.wikipedia.org:443/wiki/Agriculture_in_the_United_States:2148 2149 2150 2151 2152 2153 2154,https://en.wikipedia.org:443/wiki/Sports_teams_in_Virginia:353 354,https://en.wikipedia.org:443/wiki/Architecture_of_the_United_States:2363,https://en.wikipedia.org:443/wiki/Sports_in_Uruguay:395,https://en.wikipedia.org:443/wiki/Sports_in_Brunei:827,https://arxiv.org:443/abs/1607.04484:178,https://www.nfl.com:443/teams/seattle-seahawks/:207,https://en.wikipedia.org:443/wiki/Education_in_the_United_States:3958 3959 3960 3961,https://en.wikipedia.org:443/wiki/Town_meeting:1008,https://en.wikipedia.org:443/wiki/National_League_(baseball):1299 1300,https://en.wikipedia.org:443/wiki/MLS:3299 3300 3301 3302 3303 3304 3305 3306 3307 3308 3309 3310 3311 3312 3313 3314 3315 3316 3317 3318 3319 3320 3321 3322 3323 3324 3325 3326 3327,https://en.wikipedia.org:443/wiki/List_of_mountains_of_the_United_States:2232,https://www.sportsbusinessjournal.com:443/Archive/Sections/International.aspx:388,https://www.azcentral.com:443/story/sports/nfl/cardinals/2015/09/06/nfls-dynasties-decade/71605710/:251 252 253,https://www.forbes.com:443/sites/zachslaton/2012/10/15/how-the-mls-playoff-format-punishes-ambitious-teams/:290,https://en.wikipedia.org:443/wiki/United_States_at_the_Universiade:183 184,https://en.wikipedia.org:443/wiki/Cold_War:7051 7052 7053,https://en.wikipedia.org:443/wiki/Major_Arena_Soccer_League:845 846 847,https://www.patriots.com:443/news/check-out-the-2016-patriots-color-rush-jerseys-270621:389 390 391 392 393 394,https://en.wikipedia.org:443/wiki/2018_Rugby_World_Cup_Sevens:337 338,https://en.wikipedia.org:443/wiki/Boston:5273 5274,https://www.sportsbusinessjournal.com:443/Journal/Issues/2012/04/02/Media/Fox-channel.aspx:433,https://en.wikipedia.org:443/wiki/Spanish%E2%80%93American_War:5242 5243 5244 5245 5246,https://www.nytimes.com:443/2024/04/18/t-magazine/chalet-des-iles-paris-restaurant.html:481 482,https://en.wikipedia.org:443/wiki/Immigrant_health_care_in_the_United_States:1997 1998 1999,https://www.nytimes.com:443/2017/06/26/health/undocumented-immigrants-health-care.html:397 398,https://www.nytimes.com:443/interactive/2023/us/politics/presidential-candidates-2024.html:221,https://en.wikipedia.org:443/wiki/Sports_in_Belize:446 447 448 449 450 451,https://www.nytimes.com:443/interactive/2024/02/01/magazine/israel-founding-palestinian-conflict.html:514 515,https://en.wikipedia.org:443/wiki/Literacy_in_the_United_States:2122,https://en.wikipedia.org:443/wiki/Sports_in_Arizona:464 465 466 467 468 469 470,https://www.nytimes.com:443/column/out-there:118,https://en.wikipedia.org:443/wiki/United_States_Aquatic_Sports:330,https://en.wikipedia.org:443/wiki/Professional_Disc_Golf_Association:495,https://en.wikipedia.org:443/wiki/Inter_Miami:2329 2330 2331,https://en.wikipedia.org:443/wiki/U.S._Squash:263,https://en.wikipedia.org:443/wiki/Indiana:3242 3243 3244 3245 3246 3247 3251,https://en.wikipedia.org:443/wiki/Volleyball:1723 1724 1725 1726 1727 1728 1729,https://en.wikipedia.org:443/wiki/Constitution_of_the_United_States:5125,https://en.wikipedia.org:443/wiki/Sports_in_American_Samoa:423,https://en.wikipedia.org:443/wiki/Bureau_of_Diplomatic_Security:1840,https://en.wikipedia.org:443/wiki/Americans:3409 3410,https://en.wikipedia.org:443/wiki/Red_River_of_the_South:728,https://en.wikipedia.org:443/wiki/United_States_Public_Health_Service_Commissioned_Corps:1033 1034 1035,https://en.wikipedia.org:443/wiki/Association_of_International_Olympic_Winter_Sports_Federations:245,https://en.wikipedia.org:443/wiki/History_of_the_United_States_(1945%E2%80%931964):3254 3255 3256 3257 3258,https://www.dandc.eu:443/en/article/dangers-us-administration-negotiating-taliban-without-involving-afghan-government:209,https://www.wired.com:443/2016/08/olympic-cities-everywhere/:310,https://en.wikipedia.org:443/wiki/U.S._Biathlon_Association:114,https://en.wikipedia.org:443/wiki/Federal_law_enforcement_in_the_United_States:1158,https://commons.wikimedia.org:443/wiki/Category:Sports_in_Maryland:159 160 161 162 163 164,https://www.nytimes.com:443/section/science?page=9:880,https://www.commanders.com:443/news/commanders-agree-to-trade-de-montez-sweat-to-chicago-bears:204 205 206 207 208,https://en.wikipedia.org:443/wiki/Cycling_in_the_United_States:456,https://en.wikipedia.org:443/wiki/Powers_of_the_president_of_the_United_States:1203,https://en.wikipedia.org:443/wiki/National_symbols_of_the_United_States:568,https://en.wikipedia.org:443/wiki/Sports_in_Syria:709,https://en.wikipedia.org:443/wiki/Association_of_Summer_Olympic_International_Federations:425 426,https://en.wikipedia.org:443/wiki/Maternal_mortality_in_the_United_States:1607 1608 1609,https://en.wikipedia.org:443/wiki/Sports_in_Estonia:726 727 728 729 730,https://en.wikipedia.org:443/wiki/Iroquois:4923 4924 4925 4926 4927 4928 4929 4930,https://en.wikipedia.org:443/wiki/Sports_in_Venezuela:862 863,https://en.wikipedia.org:443/wiki/2023_Big_Ten_Conference_football_season:1637 1638 1639 1640 1641 1642 1643 1644 1645 1646 1647 1648 1649 1650 1651,https://en.wikipedia.org:443/wiki/U.S._Immigration_and_Customs_Enforcement:2333 2334 2335 2336 2337 2338 2339,https://en.wikipedia.org:443/wiki/Sports_in_Ethiopia:216,https://en.wikipedia.org:443/wiki/Sports_in_the_United_States:1554 1555 1556 1557 1558 1559 1560 1561 1562 1563 1564 1565 1566 1567,https://en.wikipedia.org:443/wiki/Beach_volleyball:1792 1793 1794,https://en.wikipedia.org:443/wiki/Sports_in_Poland:797 798 799,https://nytlicensing.com:443/:394,https://en.wikipedia.org:443/wiki/Sports_in_South_Korea:644 645 646 647,https://www.saturdaydownsouth.com:443/sports/ranking-top-25-rivalries-college-sports-2023/:618 619 620,https://en.wikipedia.org:443/wiki/Fenway_Park:3516 3517 3518 3519 3520 3521 3522 3523 3524 3525 3526 3527 3528 3529 3530 3531 3532 3533 3534 3535 3536 3537 3538 3539 3540 3541 3542 3543 3544 3545 3546 3547 3548 3549 3550 3551 3552 3553 3554 3555 3556 3557 3558 3559 3560 3561 3562 3563 3564 3565 3566 3567 3568 3569 3570 3571 3572 3573 3574 3575 3576 3577 3578 3579 3580 3581 3582 3583 3584 3585 3586 3587 3588 3589 3590 3591 3592 3593 3594 3595 3596 3597 3598 3599 3600 3601 3602 3603 3604 3605 3606 3607 3608 3609 3610 3611 3612 3613 3614 3615 3616 3617 3618 3619 3620 3621 3622 3623 3624 3625 3626 3627 3628 3629 3630 3631 3632 3633 3634 3635 3636 3637 3638 3639 3640 3641 3642 3643 3644 3645 3646 3647 3648 3649 3650 3651 3652 3653 3654 3655 3656 3657 3658 3659 3660 3661 3662 3663 3664 3665 3666 3667 3668 3669 3673,https://nytlicensing.com:443/timesdigest/:280,https://en.wikipedia.org:443/wiki/Template:Sports_in_the_United_States:99,https://en.wikipedia.org:443/wiki/Portal:Current_events:955,https://en.wikipedia.org:443/wiki/USA_Water_Ski_%26_Wake_Sports:119,https://en.wikipedia.org:443/wiki/Sports_in_India:5033 5034 5035 5036 5037 5038 5039 5040 5041 5042 5043 5044 5045 5046 5047 5048 5049 5050 5051 5052 5053 5054 5055 5056 5057 5058 5059 5060 5061 5062 5063 5064 5065 5066 5067 5068 5069 5070 5071 5072 5073 5074 5075 5076 5077 5078 5079 5080 5081 5082 5083 5084 5086,https://www.patriots.com:443/news/ben-coates-elected-to-patriots-hall-of-fame-140866:514 515,https://en.wikipedia.org:443/wiki/Rugby_union_at_the_Summer_Olympics:604 605 606 607 608,https://en.wikipedia.org:443/wiki/Sports_in_Samoa:526,https://en.wikipedia.org:443/wiki/United_States_Minor_Outlying_Islands:500 501,https://www.forbes.com:443/2008/09/09/mls-soccer-beckham-biz-sports-cz_kb_0909mlsvalues.html:143,https://en.wikipedia.org:443/wiki/National_Federation_of_State_High_School_Associations:521 522 523,https://www.gallup.com:443/394505/indicator-life-evaluation-index.aspx:363,https://en.wikipedia.org:443/wiki/United_States_men%27s_national_soccer_team:2794 2795 2796 2797 2798 2799 2800 2801 2802 2803 2804 2805 2806,https://en.wikipedia.org:443/wiki/Drug_Enforcement_Administration:2667 2668 2669 2670 2671 2672 2673 2674 2675 2676 2677 2678,https://en.wikipedia.org:443/wiki/College_basketball:2377 2378 2379 2380 2381 2382 2383 2384 2385 2386 2387 2388 2389 2390 2391 2392 2393 2394 2395 2396 2397,https://en.wikipedia.org:443/wiki/Sports_in_Washington:1498 1499 1500 1501 1502 1503 1504 1505 1506 1507 1508 1509 1510 1511 1512 1513 1514 1515 1516 1517 1518 1519 1520 1521 1522 1523 1524 1525 1526,https://history.army.mil:443/books/wwii/persian/index.htm:369 370 371,https://en.wikipedia.org:443/wiki/Sports_in_Georgia_(country):359 360,https://en.wikipedia.org:443/wiki/Timeline_of_United_States_inventions_(after_1991):988 989 990 991,https://en.wikipedia.org:443/wiki/Summer_Olympic_Games:1716 1717 1718 1719 1720 1721 1722 1723,https://www.sportsbusinessjournal.com:443/Daily/Issues/2024/04/29.aspx:365 366,https://www.sportsbusinessjournal.com:443/Subscribe/Subscription-Landing.aspx:383,https://en.wikipedia.org:443/wiki/Basketball_in_the_United_States:386,https://www.battlefields.org:443/preserve/saved-land:274,https://en.wikipedia.org:443/wiki/New_England:3655 3656 3657 3658,https://en.wikipedia.org:443/wiki/College_athletics_in_the_United_States:1970 1971 1972 1973 1974 1975 1976 1977 1978 1979 1980 1981 1982 1983 1984 1985,https://nytlicensing.com:443/magazines/:342,https://en.wikipedia.org:443/wiki/United_States_Polo_Association:481 482,https://en.wikipedia.org:443/wiki/Baseball:3462 3463 3464 3465 3466 3467 3468 3469 3470 3471 3472 3473 3474 3475 3476 3477 3478 3479 3480 3481 3482 3483 3484 3485 3486 3487 3488 3489 3490 3491 3492 3493 3494 3495 3496 3497 3498 3499 3500 3501 3502 3503 3504 3505 3506 3507 3508 3509 3510 3511 3540 3541 3542 3543 3544 3545 3546 3547 3548 3549 3550 3551 3552 3553 3554 3555 3556 3557 3558 3559 3560 3561 3562 3563 3564 3565 3566 3567 3568 3569 3570 3571 3572 3573 3574 3575 3576 3577 3578 3579 3580 3581 3582,https://en.wikipedia.org:443/wiki/USA_Baseball:2287 2288 2289 2290 2291 2292 2293 2294 2295 2296 2297 2298 2299 2300 2301 2302 2303 2304 2305 2306 2307 2308 2309 2310 2311 2312 2313 2314 2315 2316 2317,https://en.wikipedia.org:443/wiki/Vietnam_War:6200 6201 6202 6203 6204 6205,https://en.wikipedia.org:443/wiki/Disc_golf_in_the_United_States:408,https://en.wikipedia.org:443/wiki/National_Football_League:2404 2405 2406 2407 2408 2409 2410 2411 2412 2413 2414 2415 2416 2417 2418,https://en.wikipedia.org:443/wiki/Boston_Red_Sox:3754 3755 3756 3757 3758 3759 3760 3761 3762 3763 3764 3765 3766 3767 3768 3769 3770 3771 3772 3773 3774 3775 3776 3777 3778 3779 3780 3781 3782 3783 3784 3785 3786 3787 3788 3789 3796,https://www.usopc.org:443/paralympic-sport-development:79,https://www.nytimes.com:443/section/fashion/weddings:341 342 343,https://en.wikipedia.org:443/wiki/Public_utilities_commission:478,https://commons.wikimedia.org:443/wiki/Category:Sports_in_the_United_States:272 273,https://www.nytimes.com:443/section/t-magazine:352 353 354 355,https://en.wikipedia.org:443/wiki/United_States_Olympic_%26_Paralympic_Committee:1315 1316 1317 1318,https://en.wikipedia.org:443/wiki/USA_Cycling:561 562,https://www.packers.com:443/community/shareholders:191 192 193 194,https://nytlicensing.com:443/content/harvard-health-publishing/:564,https://en.wikipedia.org:443/wiki/American_League:802 803 804 805,https://en.wikipedia.org:443/wiki/ISSN_(identifier):477 478,https://en.wikipedia.org:443/wiki/National_Reconnaissance_Office:1628 1629 1630 1631 1632 1633 1634 1635,https://en.wikipedia.org:443/wiki/Bodybuilding_in_the_United_States:412,https://www.nytimes.com:443/2024/04/18/nyregion/trump-trial-jury-hush-money.html:199 200,https://en.wikipedia.org:443/wiki/Supreme_Court_of_the_United_States:6332 6333,https://en.wikipedia.org:443/wiki/Francis_Olympic_Field:657 658 659 660 661 662 663 664 665 666 667 668 669 670 671 672 673 674 675 676 677 678 679 680 681 682 683 684 685 686 687 688 689 690 691 692 693 694 695 696 697 698 699 700 701 702 703 704 705 706 707 708 709 710 711,https://en.wikipedia.org:443/wiki/Antisemitism_in_the_United_States:1706,https://en.wikipedia.org:443/wiki/Sports_in_South_Carolina:656,https://en.wikipedia.org:443/wiki/Carlos_Bocanegra:1051 1052 1053,https://en.wikipedia.org:443/wiki/United_States_Backgammon_Federation:210,https://en.wikipedia.org:443/wiki/Major_professional_sports_teams_of_the_United_States_and_Canada:638 639 640 641 642 643 644 645 646 647 648 649 650 651 652 653 654 655 656 657 658 659 660 661 662,https://www.sportsbusinessjournal.com:443/Journal/Issues/2024/03/04.aspx:358,https://en.wikipedia.org:443/wiki/IndyCar_Series:2373 2374 2375 2376,https://en.wikipedia.org:443/wiki/MLB_Network:1491 1492 1493 1494,https://en.wikipedia.org:443/wiki/War_in_Afghanistan_(2001%E2%80%932021):6817 6818 6819 6820 6821,https://en.wikipedia.org:443/wiki/New_England_Patriots:4331 4332 4333 4334 4335 4336 4337 4338 4339 4340 4341 4342 4343 4344 4345 4346 4347 4348 4349 4350 4351 4352 4353 4354 4355 4356 4357 4358 4359 4360 4361 4362 4363 4364 4365 4366,https://en.wikipedia.org:443/wiki/United_States_Attorney:997,https://www.nytimes.com:443/2017/11/24/opinion/vietnam-the-chemical-war.html?mtrref=www.google.ca&amp;assetType=opinion:377,https://spoiler.bolavip.com:443/en/celebrities/ryan-gosling-net-worth:187,https://en.wikipedia.org:443/wiki/Sports_in_Maryland:1886 1887 1888 1889 1890 1891 1892 1893 1894 1895 1896 1897 1898 1899 1900 1901 1902 1903 1904 1905 1906 1907 1908 1909 1910 1911 1912 1913 1914 1915 1916 1917 1918 1919 1920 1921 1922 1923 1924 1925 1926 1927 1928 1929 1930 1931 1932 1933 1934 1935 1936 1937 1938 1939 1940 1941 1942 1943 1944 1945 1946,https://en.wikipedia.org:443/wiki/Southern_United_States:4251 4252 4253 4254 4255 4256 4257,https://en.wikipedia.org:443/wiki/USA_Cricket:779 780,https://en.wikipedia.org:443/wiki/Associate_Justice_of_the_Supreme_Court_of_the_United_States:1082 1083 1084,https://www.nfl.com:443/teams/philadelphia-eagles/:223,https://en.wikipedia.org:443/wiki/Olympic_Games:3800 3801 3802 3803 3804 3805 3806 3807 3808 3809 3810 3811 3812 3813 3814 3815 3816,https://en.wikipedia.org:443/wiki/Sports_in_France:781,https://en.wikipedia.org:443/wiki/United_States_Lifesaving_Association:213,https://www.sportsbusinessjournal.com:443/Articles/2023/10/23/mls-sets-attendance-record-for-season:320,https://www.nytimes.com:443/by/emily-cochrane:159,https://en.wikipedia.org:443/wiki/Terrorism_in_the_United_States:4520 4521 4522,https://www.nytimes.com:443/section/fashion?page=9:914,https://en.wikipedia.org:443/wiki/Sports_in_Cuba:530,https://www.forbes.com:443/sites/mikeozanian/2019/05/10/david-beckham-reportedly-buys-stake-in-his-company-at-150-million-valuation/:97,https://www.ncaa.org:443/sb_output.aspx?form=28:68,https://www.nytimes.com:443/2024/05/03/climate/nasa-satellites-data.html:329,https://www.theatlantic.com:443/magazine/archive/2023/01/homelessness-affordable-housing-crisis-democrats-causes/672224/:470,https://en.wikipedia.org:443/wiki/Sports_in_Finland:925,https://en.wikipedia.org:443/wiki/Soccer_in_the_United_States:2860 2861 2862 2863 2864,https://en.wikipedia.org:443/wiki/NBA:2406 2407 2408 2409 2410 2411 2412 2413 2414 2415 2416,https://www.nytimes.com:443/column/field-notes:58 59 60,https://en.wikipedia.org:443/wiki/Culture_of_the_United_States:4073 4074 4075 4076 4077 4078 