flaw flaw-0 1576 https://www.nytimes.com:443/2024/04/17/opinion/venezuela-oil-sanctions.html:234,https://www.nytimes.com:443/2024/05/03/climate/nasa-satellites-data.html:338,https://en.wikipedia.org:443/wiki/Vietnam_War:6355 6356 6357 6358,https://www.nytimes.com:443/column/out-there:120,https://en.wikipedia.org:443/wiki/New_England_Patriots:4423,https://en.wikipedia.org:443/wiki/Antisemitism_in_the_United_States:1735,https://www.azcentral.com:443/story/sports/nfl/cardinals/2015/09/06/nfls-dynasties-decade/71605710/:255,https://www.nytimes.com:443/by/pamela-paul:136,https://en.wikipedia.org:443/wiki/American_exceptionalism:2525,https://en.wikipedia.org:443/wiki/Basketball_in_the_United_States:393,https://en.wikipedia.org:443/wiki/American_Revolution:5917,https://www.businessinsider.com:443/guides/tech:443,https://www.theguardian.com:443/sport/2017/aug/19/will-mcgregor-v-mayweather-save-american-boxing-or-bury-it?CMP=share_btn_link:579,https://en.wikipedia.org:443/wiki/Education_in_the_United_States:4002,https://en.wikipedia.org:443/wiki/Supreme_Court_of_the_United_States:6413,https://en.wikipedia.org:443/wiki/The_Washington_Post:2210,https://en.wikipedia.org:443/wiki/Great_Recession_in_the_United_States:2005,https://www.nytimes.com:443/section/science?page=9:905,https://en.wikipedia.org:443/wiki/Constitution_of_the_United_States:5189,https://www.nytimes.com:443/video/us/100000007348445/breonna-taylor-death-cops.html:357,https://www.nytimes.com:443/section/health?page=7:720,https://en.wikipedia.org:443/wiki/History_of_the_United_States_(2008%E2%80%93present):4177 4178 