ford ford-0 3756 https://en.wikipedia.org:443/wiki/Democratic_Party_(United_States):4791 4792 4793,https://www.nytimes.com:443/2024/05/04/business/energy-environment/tesla-electric-vehicles-supercharger.html:451,https://en.wikipedia.org:443/wiki/Fox_Sports_1:1597,https://en.wikipedia.org:443/wiki/Terrorism_in_the_United_States:4638 4639 4640,https://en.wikipedia.org:443/wiki/Cold_War:7257 7258,https://en.wikipedia.org:443/wiki/National_League_(baseball):1346 1347,https://en.wikipedia.org:443/wiki/National_Football_League:2717 2718,https://en.wikipedia.org:443/wiki/MLS:3465,https://en.wikipedia.org:443/wiki/List_of_current_United_States_district_judges:4363 4364 4365 4366 4367,https://en.wikipedia.org:443/wiki/WNBA%27s_Top_15_Team:264,https://en.wikipedia.org:443/wiki/Agriculture_in_the_United_States:2222,https://en.wikipedia.org:443/wiki/Associate_Justice_of_the_Supreme_Court_of_the_United_States:1088,https://en.wikipedia.org:443/wiki/Arkansas_River:1024 1025,https://www.azcentral.com:443/story/sports/nfl/cardinals/2015/09/06/nfls-dynasties-decade/71605710/:261,https://en.wikipedia.org:443/wiki/Antisemitism_in_the_United_States:1742 1743,https://en.wikipedia.org:443/wiki/Articles_of_Confederation:2874,https://en.wikipedia.org:443/wiki/National_Boxing_Association:1275,https://en.wikipedia.org:443/wiki/History_of_the_United_States_(1849%E2%80%931865):2095 2096,https://en.wikipedia.org:443/wiki/List_of_mountains_of_the_United_States:2285,https://en.wikipedia.org:443/wiki/New_England:3773,https://en.wikipedia.org:443/wiki/Jack_Nicklaus:2869 2870 2871 2872,https://en.wikipedia.org:443/wiki/Sergeant_at_Arms_of_the_United_States_Senate:748,https://en.wikipedia.org:443/wiki/Indiana:3355,http://www.redsoxdiehard.com:80/players/unifnums.html:1629 1630,https://www.usatoday.com:443/for-subscribers/:99 100,https://www.independent.co.uk:443/tv/travel-smart:429 430,https://en.wikipedia.org:443/wiki/Literacy_in_the_United_States:2157,https://en.wikipedia.org:443/wiki/Vietnam_War:6555 6556 6557 6558 6559 6560 6561 6562 6563 6564 6565 6566,https://en.wikipedia.org:443/wiki/Iroquois:5099,https://en.wikipedia.org:443/wiki/Culture_of_the_United_States:4218 4219 4220 4221,https://en.wikipedia.org:443/wiki/Outline_of_the_history_of_the_United_States:1745 1746,https://en.wikipedia.org:443/wiki/History_of_the_United_States_(2008%E2%80%93present):4251,https://en.wikipedia.org:443/wiki/Boston_Red_Sox:3937 3938 3939,https://en.wikipedia.org:443/wiki/Speaker_of_the_United_States_House_of_Representatives:1674 1675 1676 1677 1678 1679,https://en.wikipedia.org:443/wiki/Major_professional_sports_teams_of_the_United_States_and_Canada:697,https://en.wikipedia.org:443/wiki/2023_Big_Ten_Conference_football_season:1751 1752 1753 1754 1755 1756 1757,https://en.wikipedia.org:443/wiki/U.S._Immigration_and_Customs_Enforcement:2425,https://en.wikipedia.org:443/wiki/IndyCar_Series:2470 2471 2472 2473 2474 2475 2476,https://en.wikipedia.org:443/wiki/Spanish%E2%80%93American_War:5494,https://millercenter.org:443/president/adams/essays/clay-1825-secretary-of-state:260 261,https://en.wikipedia.org:443/wiki/United_States_Declaration_of_Independence:4033,https://en.wikipedia.org:443/wiki/History_of_the_United_States_(1945%E2%80%931964):3367 3368 3369 3370 3371,https://en.wikipedia.org:443/wiki/Major_Arena_Soccer_League:885 886,https://en.wikipedia.org:443/wiki/Baseball:3697,https://en.wikipedia.org:443/wiki/Supreme_Court_of_the_United_States:6455 6456 6457 6458 6459,https://en.wikipedia.org:443/wiki/Federal_law_enforcement_in_the_United_States:1209,https://en.wikipedia.org:443/wiki/Drug_Enforcement_Administration:2772 2773,https://en.wikipedia.org:443/wiki/Constitution_of_the_United_States:5220,https://en.wikipedia.org:443/wiki/New_England_Patriots:4590 