forrest forrest-0 847 https://en.wikipedia.org:443/wiki/Articles_of_Confederation:2916 2917 2918,https://en.wikipedia.org:443/wiki/Constitution_of_the_United_States:5261,https://en.wikipedia.org:443/wiki/American_Revolution:6042 6043,https://www.azcentral.com:443/story/sports/nfl/cardinals/2015/09/06/nfls-dynasties-decade/71605710/:263 264,https://www.nytimes.com:443/interactive/2024/03/28/travel/things-to-do-mumbai.html:523,https://en.wikipedia.org:443/wiki/Southern_United_States:4415 4416,https://en.wikipedia.org:443/wiki/Summer_Olympic_Games:1788,https://en.wikipedia.org:443/wiki/Vietnam_War:6608,https://en.wikipedia.org:443/wiki/Perpetual_Union:1289,https://www.independent.co.uk:443/tv/travel-smart:432,https://en.wikipedia.org:443/wiki/Culture_of_the_United_States:4252,https://en.wikipedia.org:443/wiki/United_States_Declaration_of_Independence:4081 4082 