fourth fourth-0 7417 https://en.wikipedia.org:443/wiki/Carlos_Bocanegra:1110,https://en.wikipedia.org:443/wiki/Indiana:3441,https://en.wikipedia.org:443/wiki/Independent_city_(United_States):570,https://en.wikipedia.org:443/wiki/United_States_Attorney:1022,https://en.wikipedia.org:443/wiki/List_of_current_United_States_district_judges:4378,https://en.wikipedia.org:443/wiki/Tribal_sovereignty_in_the_United_States:1611,https://en.wikipedia.org:443/wiki/Sports_in_Georgia_(country):379,https://en.wikipedia.org:443/wiki/Great_Recession_in_the_United_States:2031 2032 2033,https://en.wikipedia.org:443/wiki/History_of_the_United_States_(1945%E2%80%931964):3416 3417 3418,https://www.azcentral.com:443/story/sports/nfl/cardinals/2015/09/06/nfls-dynasties-decade/71605710/:267 268 269,https://www.nytimes.com:443/article/senate-races-2024-election.html:408 409,https://cooking.nytimes.com:443/recipes/1019333-millionaires-shortbread:627,https://en.wikipedia.org:443/wiki/Americans:3502,https://bolavip.com:443/en:280,https://en.wikipedia.org:443/wiki/Sports_in_Syria:754,https://www.forbes.com:443/sites/zachslaton/2012/10/15/how-the-mls-playoff-format-punishes-ambitious-teams/:336,https://www.nytimes.com:443/video:154,https://en.wikipedia.org:443/wiki/MLB_Network:1563 1564,https://www.patriots.com:443/news/ben-coates-elected-to-patriots-hall-of-fame-140866:550,https://en.wikipedia.org:443/wiki/Baseball:3754,https://www.law.cornell.edu:443/supremecourt/text/74/700:2034 2035,https://www.nytimes.com:443/spotlight/graphics?page=10:842,https://en.wikipedia.org:443/wiki/History_of_the_United_States_(1849%E2%80%931865):2120 2121,https://en.wikipedia.org:443/wiki/Olympic_Games:4019,https://en.wikipedia.org:443/wiki/Sports_in_Washington:1680 1681,https://en.wikipedia.org:443/wiki/Jack_Nicklaus:2891 2892 2893 2894 2895 2896 2897 2898 2899 2900 2901 2902,https://en.wikipedia.org:443/wiki/West_Coast_of_the_United_States:1196,https://en.wikipedia.org:443/wiki/Terrorism_in_the_United_States:4677,https://en.wikipedia.org:443/wiki/United_States_Declaration_of_Independence:4115 4116 4117 4118 4119 4120 4121,https://en.wikipedia.org:443/wiki/U.S._state:1999 2000,https://en.wikipedia.org:443/wiki/2023_Big_Ten_Conference_football_season:1761 1762 1763,https://en.wikipedia.org:443/wiki/Ice_hockey:2303 2304,https://en.wikipedia.org:443/wiki/Greenhouse_gas_emissions_by_the_United_States:1642,https://www.independent.co.uk:443/sport/us-sport/nba/draft-2020-what-time-start-uk-b1725070.html:282,https://en.wikipedia.org:443/wiki/Agriculture_in_the_United_States:2248,https://en.wikipedia.org:443/wiki/Cold_War:7362,https://en.wikipedia.org:443/wiki/National_symbols_of_the_United_States:606,https://en.wikipedia.org:443/wiki/Sports_in_Poland:903 904,https://en.wikipedia.org:443/wiki/Sports_in_Uzbekistan:291 292,https://en.wikipedia.org:443/wiki/Boston:5461 5462 5463 5464 5465 5466 5467,https://en.wikipedia.org:443/wiki/Sports_in_South_Korea:720 721,https://en.wikipedia.org:443/wiki/Soccer_in_the_United_States:3168 3169 3170,https://en.wikipedia.org:443/wiki/Volleyball:1861,https://en.wikipedia.org:443/wiki/Comparison_of_U.S._state_and_territory_governments:590,https://en.wikipedia.org:443/wiki/Colonial_history_of_the_United_States:5425 5426 5427 5428 5429 5430,https://en.wikipedia.org:443/wiki/Inter_Miami:2519,https://en.wikipedia.org:443/wiki/New_England:3830,https://en.wikipedia.org:443/wiki/Democratic_Party_(United_States):4844 4845 4846 4847,https://en.wikipedia.org:443/wiki/Sports_in_India:5433 5434 5435 5436 5437 5438 5439,https://en.wikipedia.org:443/wiki/Literacy_in_the_United_States:2186,https://en.wikipedia.org:443/wiki/Sports_in_Uruguay:441,https://spoiler.bolavip.com:443/en/celebrities/ryan-gosling-net-worth:200 201,https://en.wikipedia.org:443/wiki/Consolidated_city-county:1558,https://www.theguardian.com:443/us/soccer:341,http://www.redsoxdiehard.com:80/players/unifnums.html:1638,https://en.wikipedia.org:443/wiki/Vietnam_War:6635,https://en.wikipedia.org:443/wiki/Race_and_maternal_health_in_the_United_States:1418,https://en.wikipedia.org:443/wiki/Powers_of_the_president_of_the_United_States:1262,https://en.wikipedia.org:443/wiki/Supreme_Court_of_the_United_States:6508 6509 6510 6511,https://en.wikipedia.org:443/wiki/National_Football_League:2750 2751,https://en.wikipedia.org:443/wiki/Boston_Red_Sox:3971 3972 3973 3974 3975,https://en.wikipedia.org:443/wiki/Sports_in_Venezuela:921,https://en.wikipedia.org:443/wiki/MLS:3499 3500,https://www.forbes.com:443/2008/09/09/mls-soccer-beckham-biz-sports-cz_kb_0909mlsvalues.html:159,https://www.nytimes.com:443/2024/05/02/business/horse-racing-deaths-kentucky-derby.html:501,https://en.wikipedia.org:443/wiki/USA_Baseball:2397 2398,https://en.wikipedia.org:443/wiki/Culture_of_the_United_States:4278 4279 4280 4281 4282,https://en.wikipedia.org:443/wiki/American_Sign_Language:2349 2350,https://en.wikipedia.org:443/wiki/Sports_in_Brunei:882,https://en.wikipedia.org:443/wiki/College_basketball:2534 2535 2536 2537 2538 2539,https://en.wikipedia.org:443/wiki/Perpetual_Union:1296,https://en.wikipedia.org:443/wiki/NBA:2542 2543 2544 2545 2546 2547 2548,https://en.wikipedia.org:443/wiki/Constitution_of_the_United_States:5305 5306 5307 5308 5309 5310 5311 5312,https://en.wikipedia.org:443/wiki/American_exceptionalism:2580,https://en.wikipedia.org:443/wiki/History_of_the_United_States_(2008%E2%80%93present):4285 4286 4287 4288,https://en.wikipedia.org:443/wiki/War_in_Afghanistan_(2001%E2%80%932021):7289 7290,https://www.nytimes.com:443/books/best-sellers/:786,https://en.wikipedia.org:443/wiki/Coterminous_municipality:183,https://en.wikipedia.org:443/wiki/Sports_in_the_United_States:1684 1685,https://en.wikipedia.org:443/wiki/Summer_Olympic_Games:1797,https://en.wikipedia.org:443/wiki/Hawaiian_home_land:294,https://en.wikipedia.org:443/wiki/Spanish%E2%80%93American_War:5572 5573,https://en.wikipedia.org:443/wiki/Sports_in_France:871 872,https://en.wikipedia.org:443/wiki/Prescription_drug_prices_in_the_United_States:2478 2479 2480,https://en.wikipedia.org:443/wiki/Southern_United_States:4448 4449 4450,https://en.wikipedia.org:443/wiki/United_States_men%27s_national_soccer_team:3059 3060 3061 3062 3063 3064 3065 3066 3067 3068 3069 3070 3071 3072 3073 3074 3075 3076 3077 3078 3079 3080 3081 3082 3083 3084 3085 3086 3087 3088 3089 3090 3091 3092,https://en.wikipedia.org:443/wiki/Articles_of_Confederation:2941 2942,https://en.wikipedia.org:443/wiki/American_Revolution:6114 6115 6116 6117 6118,https://en.wikipedia.org:443/wiki/List_of_mountain_peaks_of_the_United_States:1436,https://en.wikipedia.org:443/wiki/IndyCar_Series:2535,https://en.wikipedia.org:443/wiki/Professional_Disc_Golf_Association:514,https://en.wikipedia.org:443/wiki/New_England_Patriots:4609 4610 4611 4612 4613 4614 4615 4616 4617 4618 4619 4620,https://www.nytimes.com:443/2024/04/18/t-magazine/chalet-des-iles-paris-restaurant.html:508,https://www.nytimes.com:443/live/2024/01/19/world/israel-hamas-news/a-un-official-says-israeli-treatment-of-detainees-may-amount-to-torture?smid=url-share:1102 1103,https://www.patriots.com:443/team/players-roster/:278,https://www.nytimes.com:443/section/corrections?page=5:395,https://en.wikipedia.org:443/wiki/Education_in_the_United_States:4086 4087 4088,https://en.wikipedia.org:443/wiki/Outline_of_the_history_of_the_United_States:1765 1766 1767,https://en.wikipedia.org:443/wiki/Special_district_(United_States):683 