franco franco-0 971 https://en.wikipedia.org:443/wiki/Carlos_Bocanegra:1123,https://en.wikipedia.org:443/wiki/United_States_Declaration_of_Independence:4143,https://en.wikipedia.org:443/wiki/Henley_Royal_Regatta:1482,https://en.wikipedia.org:443/wiki/Articles_of_Confederation:2968,https://en.wikipedia.org:443/wiki/Americans:3520,https://en.wikipedia.org:443/wiki/Sports_in_Venezuela:924,https://en.wikipedia.org:443/wiki/Colonial_history_of_the_United_States:5474,https://www.azcentral.com:443/story/sports/nfl/cardinals/2015/09/06/nfls-dynasties-decade/71605710/:274 275,https://www.fmfstateofmind.com:443/:266,https://en.wikipedia.org:443/wiki/Spanish%E2%80%93American_War:5594 5595,https://en.wikipedia.org:443/wiki/Perpetual_Union:1307,https://en.wikipedia.org:443/wiki/National_Boxing_Association:1294 1295 1296 1297 1298,https://en.wikipedia.org:443/wiki/American_Revolution:6175,https://en.wikipedia.org:443/wiki/Olympic_Games:4039,https://en.wikipedia.org:443/wiki/Inter_Miami:2541 