fred fred-0 2611 https://cooking.nytimes.com:443/recipes/1023559-ina-gartens-bourbon-chocolate-pecan-pie:641,https://en.wikipedia.org:443/wiki/Associate_Justice_of_the_Supreme_Court_of_the_United_States:1104 1105,https://en.wikipedia.org:443/wiki/Category:Use_mdy_dates_from_October_2023:390,http://www.redsoxdiehard.com:80/players/unifnums.html:1669 1670 1671 1672 1673 1674 1675 1676,https://en.wikipedia.org:443/wiki/Francis_Olympic_Field:827,https://www.azcentral.com:443/story/sports/nfl/cardinals/2015/09/06/nfls-dynasties-decade/71605710/:277,https://en.wikipedia.org:443/wiki/List_of_current_United_States_district_judges:4405,https://en.wikipedia.org:443/wiki/Americans:3524 3525,https://en.wikipedia.org:443/wiki/History_of_the_United_States_(2008%E2%80%93present):4299,https://en.wikipedia.org:443/wiki/The_Washington_Post:2281 2282,https://en.wikipedia.org:443/wiki/Boston_Red_Sox:4037 4038 4039 4040 4041,https://en.wikipedia.org:443/wiki/Great_Recession_in_the_United_States:2046 2047 2048 2049 2050 2051 2052 2053 2054 2055 2056,https://en.wikipedia.org:443/wiki/New_England:3846,https://www.nytimes.com:443/2009/01/05/opinion/05krugman.html:205,https://www.patriots.com:443/team/players-roster/:280,https://en.wikipedia.org:443/wiki/Spanish%E2%80%93American_War:5606,https://en.wikipedia.org:443/wiki/Fashion_in_the_United_States:826,https://en.wikipedia.org:443/wiki/Boston:5498,https://en.wikipedia.org:443/wiki/Fenway_Park:3897 3898,https://www.nytimes.com:443/subscription:72,https://www.patriots.com:443/news/ben-coates-elected-to-patriots-hall-of-fame-140866:560,https://en.wikipedia.org:443/wiki/Prescription_drug_prices_in_the_United_States:2487 2488,https://www.patriots.com:443/news/check-out-the-2016-patriots-color-rush-jerseys-270621:432,https://en.wikipedia.org:443/wiki/Cold_War:7407 7408,https://www.theguardian.com:443/sport/2004/jul/27/cricket.comment:321,https://en.wikipedia.org:443/wiki/National_Football_League:2792,https://en.wikipedia.org:443/wiki/Vietnam_War:6664,https://en.wikipedia.org:443/wiki/Colonial_history_of_the_United_States:5487,https://en.wikipedia.org:443/wiki/Jack_Nicklaus:2920 2921 2922 2923 2924 2925 2926 2927 2928 2929 2930 2931 2932 2933 2934 2935 2936 2937 2938,https://en.wikipedia.org:443/wiki/Supreme_Court_of_the_United_States:6528,https://en.wikipedia.org:443/wiki/Culture_of_the_United_States:4306,https://cooking.nytimes.com:443/recipes/1018626-eggs-benedict:687,https://en.wikipedia.org:443/wiki/Beach_volleyball:1923,https://en.wikipedia.org:443/wiki/United_States_Reports:327,https://en.wikipedia.org:443/wiki/New_England_Patriots:4737 4738 4739 4740 4741 