fumbl fumbl-0 922 https://www.espn.com:443/college-football/boxscore/_/gameId/401520265:117 118,https://www.commanders.com:443/news/commanders-agree-to-trade-de-montez-sweat-to-chicago-bears:225,https://www.espn.com:443/college-football/boxscore/_/gameId/401520417:133 134,https://www.espn.com:443/college-football/boxscore/_/gameId/401520155:115 116 117,https://www.espn.com:443/college-football/boxscore/_/gameId/401520324:125 126,https://www.azcentral.com:443/story/sports/nfl/cardinals/2015/09/06/nfls-dynasties-decade/71605710/:279 280,https://en.wikipedia.org:443/wiki/New_England_Patriots:4756 4757 4758,https://www.espn.com:443/college-football/boxscore/_/gameId/401520200:126 127,https://en.wikipedia.org:443/wiki/National_Football_League:2818,https://en.wikipedia.org:443/wiki/Fenway_Park:3922,https://www.espn.com:443/college-football/boxscore/_/gameId/401520383:105 106,https://en.wikipedia.org:443/wiki/The_Washington_Post:2309 