gasp gasp-0 411 https://www.nytimes.com:443/2024/05/03/nyregion/trump-trial-hope-hicks-takeaways.html:306,https://en.wikipedia.org:443/wiki/West_Coast_of_the_United_States:1233,https://www.nytimes.com:443/2024/04/26/us/politics/kristi-noem-dog-killing.html:225,https://en.wikipedia.org:443/wiki/Iroquois:5447 5448 5449 5450,https://www.azcentral.com:443/story/sports/nfl/cardinals/2015/09/06/nfls-dynasties-decade/71605710/:307 