gene gene-0 1579 https://www.nytimes.com:443/section/health?page=7:759,https://en.wikipedia.org:443/wiki/National_Football_League:2999,https://www.nytimes.com:443/section/books/review?page=7:664,https://www.nytimes.com:443/section/science?page=9:967,https://en.wikipedia.org:443/wiki/Vietnam_War:6846,https://www.nytimes.com:443/2014/11/11/technology/obama-net-neutrality-fcc.html:290,http://www.redsoxdiehard.com:80/players/unifnums.html:1767 1768 1769 1770 1771 1772 1773 1774 1775 1776 1777,https://www.nytimes.com:443/interactive/2024/05/03/us/ucla-protests-encampment-violence.html:414,https://en.wikipedia.org:443/wiki/United_States_Olympic_%26_Paralympic_Committee:1436,https://www.azcentral.com:443/story/sports/nfl/cardinals/2015/09/06/nfls-dynasties-decade/71605710/:309,https://en.wikipedia.org:443/wiki/American_League:862 863,https://en.wikipedia.org:443/wiki/Jack_Nicklaus:3050 3051 3052 3053 3054 3055 3056 3057 3058 3059 3060 3061 3062 3063 3064 3065 3066 3067,https://en.wikipedia.org:443/wiki/History_of_the_United_States_(1945%E2%80%931964):3531 3532,https://en.wikipedia.org:443/wiki/The_Washington_Post:2348 2349 2350 2351,https://en.wikipedia.org:443/wiki/List_of_current_United_States_district_judges:4468,https://www.nytimes.com:443/2024/04/14/fashion/vintage-watches-reissued.html:281 282,https://en.wikipedia.org:443/wiki/List_of_U.S._states_and_territories_by_life_expectancy:855 860,https://en.wikipedia.org:443/wiki/Cold_War:7633,https://www.nytimes.com:443/spotlight/nytimesineducation:489,https://www.nytimes.com:443/2024/04/27/opinion/left-right-happiness.html:249 