glendal glendal-0 584 https://en.wikipedia.org:443/wiki/Boston:5676,https://en.wikipedia.org:443/wiki/Major_professional_sports_teams_of_the_United_States_and_Canada:737,https://en.wikipedia.org:443/wiki/USA_Baseball:2551,https://en.wikipedia.org:443/wiki/Sports_in_Arizona:540 541 542 543 544 545 546,https://en.wikipedia.org:443/wiki/National_Football_League:3023,https://en.wikipedia.org:443/wiki/New_England_Patriots:5024 5025,https://www.azcentral.com:443/story/sports/nfl/cardinals/2015/09/06/nfls-dynasties-decade/71605710/:316 317,https://en.wikipedia.org:443/wiki/Major_Arena_Soccer_League:955 956 