glori glori-0 1672 https://en.wikipedia.org:443/wiki/Sports_in_American_Samoa:500,https://www.nytimes.com:443/2024/05/04/world/europe/russia-soldiers-women.html:407,https://en.wikipedia.org:443/wiki/Sports_in_France:1100,https://en.wikipedia.org:443/wiki/Jack_Nicklaus:3104,https://en.wikipedia.org:443/wiki/Sports_teams_in_Virginia:409 410,https://en.wikipedia.org:443/wiki/Boston:5723,https://en.wikipedia.org:443/wiki/Iroquois:5548,https://en.wikipedia.org:443/wiki/Sports_in_India:5953 5954,https://www.azcentral.com:443/story/sports/nfl/cardinals/2015/09/06/nfls-dynasties-decade/71605710/:318,https://www.theguardian.com:443/sport/2017/aug/19/will-mcgregor-v-mayweather-save-american-boxing-or-bury-it?CMP=share_btn_link:635,https://www.forbes.com:443/sites/zachslaton/2012/10/15/how-the-mls-playoff-format-punishes-ambitious-teams/:367,https://www.nytimes.com:443/section/theater:176,https://en.wikipedia.org:443/wiki/Sports_in_Washington:1846 1847 1848 1849,https://en.wikipedia.org:443/wiki/Baseball:4025,https://en.wikipedia.org:443/wiki/Boston_Red_Sox:4365,https://www.patriots.com:443/cheerleaders/pat-patriot:279 280 281 282 283 284,https://en.wikipedia.org:443/wiki/List_of_mountains_of_the_United_States:2619,https://en.wikipedia.org:443/wiki/Sports_in_Ethiopia:243,https://en.wikipedia.org:443/wiki/American_Revolution:6575,https://en.wikipedia.org:443/wiki/New_England_Patriots:5040,https://en.wikipedia.org:443/wiki/Articles_of_Confederation:3128,https://www.forbes.com:443/2008/09/09/mls-soccer-beckham-biz-sports-cz_kb_0909mlsvalues.html:184,https://www.theguardian.com:443/us/soccer:362,https://www.nytimes.com:443/2024/05/03/opinion/campus-protests-israel-gaza.html:827 