graham graham-0 3348 https://en.wikipedia.org:443/wiki/Vietnam_War:7083 7084,https://www.nytimes.com:443/spotlight/podcasts?page=6:1204,https://en.wikipedia.org:443/wiki/Olympic_Games:4791,https://en.wikipedia.org:443/wiki/Professional_Disc_Golf_Association:609,https://en.wikipedia.org:443/wiki/Terrorism_in_the_United_States:4876,https://en.wikipedia.org:443/wiki/2023_Big_Ten_Conference_football_season:1882 1883 1884 1885,https://www.forbes.com:443/sites/carlieporterfield/2022/07/26/heres-why-pickleball-the-fastest-growing-sport-in-america-is-bill-gates-favorite-game/:227 228,https://en.wikipedia.org:443/wiki/List_of_mountain_peaks_of_the_United_States:1602 1603 1604 1605 1606 1607 1608 1609,https://en.wikipedia.org:443/wiki/List_of_current_United_States_district_judges:4567 4568 4569 4570,https://en.wikipedia.org:443/wiki/Antisemitism_in_the_United_States:1846 1847,https://en.wikipedia.org:443/wiki/Cable_television:1615 1616,https://en.wikipedia.org:443/wiki/Colonial_history_of_the_United_States:5906,https://en.wikipedia.org:443/wiki/Culture_of_the_United_States:4580 4581,https://en.wikipedia.org:443/wiki/U.S._Immigration_and_Customs_Enforcement:2565,https://en.wikipedia.org:443/wiki/New_England_Patriots:5083 5084 5085,https://en.wikipedia.org:443/wiki/Soccer_in_the_United_States:3485,https://wtop.com:443/virginia/2020/01/virginia-becomes-38th-state-to-ratify-equal-rights-amendment-but-it-may-be-too-late/:306,http://www.redsoxdiehard.com:80/players/unifnums.html:1864 1865,https://www.nytimes.com:443/section/arts/dance:190 191 192 193,https://en.wikipedia.org:443/wiki/MLS:3852 3853 3854 3855,https://en.wikipedia.org:443/wiki/War_in_Afghanistan_(2001%E2%80%932021):7749 7750,https://en.wikipedia.org:443/wiki/Major_Arena_Soccer_League:962 963,https://www.nytimes.com:443/spotlight/the-great-read:103,https://en.wikipedia.org:443/wiki/Francis_Olympic_Field:858,https://en.wikipedia.org:443/wiki/Southern_United_States:4763,https://en.wikipedia.org:443/wiki/College_athletics_in_the_United_States:2218,https://www.azcentral.com:443/story/sports/nfl/cardinals/2015/09/06/nfls-dynasties-decade/71605710/:321 322 323 324,https://en.wikipedia.org:443/wiki/The_Washington_Post:2416 2417 2418 2419 2420 2421 2422 2423 2424 2425 2426 2427 2428 2429 2430 2431 2432 2433 2434 2435 2436 2437 2438 2439 2440 2441 2442 2443 2444 2445 2446 2447 2448 2449 2450 2451,https://en.wikipedia.org:443/wiki/Iroquois:5664,https://en.wikipedia.org:443/wiki/History_of_the_United_States_(1945%E2%80%931964):3664,https://en.wikipedia.org:443/wiki/Education_in_the_United_States:4505,https://www.nytimes.com:443/spotlight/podcasts:816,https://www.theguardian.com:443/sport/2017/aug/19/will-mcgregor-v-mayweather-save-american-boxing-or-bury-it?CMP=share_btn_link:648,https://en.wikipedia.org:443/wiki/Cold_War:8120,https://en.wikipedia.org:443/wiki/Indiana:3773,https://en.wikipedia.org:443/wiki/Sports_in_Arizona:558,https://en.wikipedia.org:443/wiki/Jack_Nicklaus:3337 3338 3339 3340 3341 3342 3343 3344 3345,https://www.nytimes.com:443/news-event/trump-ny-hush-money-case:218,https://en.wikipedia.org:443/wiki/File:Commons-logo.svg:299,https://en.wikipedia.org:443/wiki/List_of_mountains_of_the_United_States:2660 2661 2662 2663 2664,https://en.wikipedia.org:443/wiki/Portal:Current_events:1063,https://en.wikipedia.org:443/wiki/Spanish%E2%80%93American_War:5969 5970 