grand grand-0 8935 https://en.wikipedia.org:443/wiki/Inter_Miami:2748 2749,https://en.wikipedia.org:443/wiki/Architecture_of_the_United_States:2653 2654,https://en.wikipedia.org:443/wiki/Sports_in_South_Korea:795,https://en.wikipedia.org:443/wiki/National_symbols_of_the_United_States:643 644,https://en.wikipedia.org:443/wiki/List_of_mountains_of_the_United_States:2666 2667 2668 2669 2670 2671 2672 2673 2674 2675 2676 2677 2678 2679,https://en.wikipedia.org:443/wiki/American_exceptionalism:2756 2757,https://en.wikipedia.org:443/wiki/Jack_Nicklaus:3346 3347 3348 3349 3350 3351 3352 3353 3354 3355 3356 3357 3358,https://en.wikipedia.org:443/wiki/Sports_in_Samoa:640 641,https://en.wikipedia.org:443/wiki/International_rankings_of_the_United_States:674,https://en.wikipedia.org:443/wiki/Outline_of_the_history_of_the_United_States:1875,https://en.wikipedia.org:443/wiki/Beach_volleyball:2051,https://en.wikipedia.org:443/wiki/U.S._state:2183,https://www.azcentral.com:443/story/sports/nfl/cardinals/2015/09/06/nfls-dynasties-decade/71605710/:325,https://www.nytimes.com:443/es/:545 546,https://en.wikipedia.org:443/wiki/Cable_television:1617,https://cooking.nytimes.com:443/recipes/1018626-eggs-benedict:736,https://www.nytimes.com:443/section/world:522,https://en.wikipedia.org:443/wiki/Sports_in_Venezuela:1015 1016 1017 1018 1019 1020 1021 1022 1023,https://www.indycar.com:443/news/2022/02/02-22-internationaltv:195,https://www.patriots.com:443/team/players-roster/:296,https://en.wikipedia.org:443/wiki/Federal_law_enforcement_in_the_United_States:1308,https://en.wikipedia.org:443/wiki/Great_Recession_in_the_United_States:2203,https://en.wikipedia.org:443/wiki/Sports_in_Estonia:851 852,https://en.wikipedia.org:443/wiki/Sports_in_the_United_States:1875 1876,https://www.nytimes.com:443/section/realestate:272,https://en.wikipedia.org:443/wiki/List_of_mountain_peaks_of_the_United_States:1610 1611 1612 1613 1614 1615 1616 1617 1618 1619 1620 1621 1622 1623 1624 1625 1626 1627 1628,https://en.wikipedia.org:443/wiki/Prescription_drug_prices_in_the_United_States:2666,https://theconversation.com:443/the-rise-and-rise-of-ultimate-fighting-and-why-boxing-is-now-so-passe-55910:261,https://en.wikipedia.org:443/wiki/National_monument_(United_States):607 608 609 610 611 612 613 614 615 616 617 618 619 620 621 622 623,https://en.wikipedia.org:443/wiki/Democratic_Party_(United_States):5208 5209 5210,https://en.wikipedia.org:443/wiki/Supreme_Court_of_the_United_States:6876,https://en.wikipedia.org:443/wiki/Snowboarding:1562 1563 1564 1565,https://en.wikipedia.org:443/wiki/Francis_Olympic_Field:859 860 861 862 863,https://en.wikipedia.org:443/wiki/Boswell:267,https://en.wikipedia.org:443/wiki/Soccer_in_the_United_States:3486,https://www.foodnetwork.com:443/:428,https://en.wikipedia.org:443/wiki/Sports_in_Arizona:559 560 561 562,https://en.wikipedia.org:443/wiki/Fenway_Park:4233 4234 4235,https://en.wikipedia.org:443/wiki/Indiana:3776 3777 3778 3779 3780 3781 3782 3783,https://cooking.nytimes.com:443/recipes/1016295-mint-julep:616,https://en.wikipedia.org:443/wiki/Literacy_in_the_United_States:2346,https://en.wikipedia.org:443/wiki/Template_talk:United_States_topics:860 861 862,https://en.wikipedia.org:443/wiki/American_Revolution:6746,https://en.wikipedia.org:443/wiki/Cold_War:8124 8125 8126,https://en.wikipedia.org:443/wiki/Perpetual_Union:1397,https://en.wikipedia.org:443/wiki/Carlos_Bocanegra:1260,https://www.patriots.com:443/news/check-out-the-2016-patriots-color-rush-jerseys-270621:461 462 463,https://en.wikipedia.org:443/wiki/Fashion_in_the_United_States:879,https://www.nytimes.com:443/section/style:232,https://en.wikipedia.org:443/wiki/List_of_current_United_States_district_judges:4572 4573 4574 4575,https://en.wikipedia.org:443/wiki/Articles_of_Confederation:3212,https://en.wikipedia.org:443/wiki/Boston:5789 5790,https://en.wikipedia.org:443/wiki/IndyCar_Series:2816 2817 2818 2819 2820 2821 2822 2823 2824 2825,https://en.wikipedia.org:443/wiki/History_of_the_United_States_(1849%E2%80%931865):2300 2301,https://en.wikipedia.org:443/wiki/Timeline_of_United_States_inventions_(after_1991):1093,https://en.wikipedia.org:443/wiki/Columbia_(personification):1194 1195,https://www.nytimes.com:443/section/books/review?page=7:682,https://en.wikipedia.org:443/wiki/Red_River_of_the_South:842 843 844,https://en.wikipedia.org:443/wiki/Portal:Current_events:1064 1065 1066 1067,https://en.wikipedia.org:443/wiki/History_of_the_United_States_(1945%E2%80%931964):3665 3666,https://www.nytimes.com:443/reviews/dining:182,https://www.sbncollegehockey.com:443/high-school-hockey/2015/3/7/8167923/2015-minnesota-boys-high-school-total-attendance-record-135618:132,https://www.nytimes.com:443/2024/04/18/t-magazine/chalet-des-iles-paris-restaurant.html:539,https://en.wikipedia.org:443/wiki/Constitution_of_the_United_States:5713 5714,https://en.wikipedia.org:443/wiki/Henley_Royal_Regatta:1542 1543 1544 1545 1546 1547 1548 1549 1550 1551 1552 1553 1554 1555,https://en.wikipedia.org:443/wiki/Arkansas_River:1119,https://en.wikipedia.org:443/wiki/Colonial_history_of_the_United_States:5910 5911 5912,https://en.wikipedia.org:443/wiki/Agriculture_in_the_United_States:2381,https://en.wikipedia.org:443/wiki/Sports_in_Finland:1333 1334 1335 1336,https://en.wikipedia.org:443/wiki/History_of_the_United_States_debt_ceiling:1227,https://en.wikipedia.org:443/wiki/United_States_Declaration_of_Independence:4458,https://cooking.nytimes.com:443/:1025 1026,https://en.wikipedia.org:443/wiki/Vietnam_War:7085 7086 7087,https://en.wikipedia.org:443/wiki/Culture_of_the_United_States:4583 4584 4585 4586,https://en.wikipedia.org:443/wiki/Sports_in_France:1136 1137 1138 1139 1140 1141 1142,https://en.wikipedia.org:443/wiki/Southern_United_States:4764,https://en.wikipedia.org:443/wiki/Education_in_the_United_States:4507,https://en.wikipedia.org:443/wiki/Spanish%E2%80%93American_War:5976 5977 5978,https://en.wikipedia.org:443/wiki/Volleyball:2001 2002,https://en.wikipedia.org:443/wiki/Sports_in_American_Samoa:514,https://en.wikipedia.org:443/wiki/Terrorism_in_the_United_States:4878 4879 4880,https://www.patriots.com:443/news/ben-coates-elected-to-patriots-hall-of-fame-140866:597,https://www.nytimes.com:443/video/us/100000007348445/breonna-taylor-death-cops.html:387 388 389 390 391,https://en.wikipedia.org:443/wiki/West_Coast_of_the_United_States:1271,https://www.fmfstateofmind.com:443/:295,https://www.nytimes.com:443/2024/05/02/arts/design/petrit-halilaj-kosovo-met-roof.html:424 425 426 427,https://en.wikipedia.org:443/wiki/Maternal_mortality_in_the_United_States:1713,https://en.wikipedia.org:443/wiki/History_of_the_United_States_(2008%E2%80%93present):4518 4519 4520 4521 4522,https://en.wikipedia.org:443/wiki/List_of_U.S._states_and_territories_by_life_expectancy:890,https://www.nytimes.com:443/section/sports:111,https://en.wikipedia.org:443/wiki/Boston_Red_Sox:4413,https://en.wikipedia.org:443/wiki/Race_and_maternal_health_in_the_United_States:1485,https://en.wikipedia.org:443/wiki/Baseball:4068 4069 4070 4071,https://www.nytimes.com:443/2024/05/02/arts/music/tiktok-universal-music-deal.html:242 243,https://en.wikipedia.org:443/wiki/United_States_dollar:3615 3616 3617,https://en.wikipedia.org:443/wiki/Sports_in_Papua_New_Guinea:431 432,https://en.wikipedia.org:443/wiki/War_in_Afghanistan_(2001%E2%80%932021):7753 7754 7755 7756 7757,https://en.wikipedia.org:443/wiki/Louise_Suggs:472 473 474,https://en.wikipedia.org:443/wiki/Olympic_Games:4793 4794 4795,https://en.wikipedia.org:443/wiki/Sports_in_Uruguay:467 468 469,https://en.wikipedia.org:443/wiki/American_League:875,https://www.theguardian.com:443/us/soccer:374,https://www.nytimes.com:443/section/fashion/weddings:394,https://www.nytimes.com:443/books/best-sellers/mass-market-monthly/:312 313 314 315 316,https://en.wikipedia.org:443/wiki/USA_Cricket:865 866,https://en.wikipedia.org:443/wiki/Major_Arena_Soccer_League:964 965 966,https://en.wikipedia.org:443/wiki/Sports_in_Poland:978 979 980 981 982,https://en.wikipedia.org:443/wiki/Category:Use_mdy_dates_from_October_2023:399 400,https://www.nytimes.com:443/2017/06/26/health/undocumented-immigrants-health-care.html:441,https://www.nytimes.com:443/interactive/2024/02/01/magazine/israel-founding-palestinian-conflict.html:597,https://en.wikipedia.org:443/wiki/Sports_in_India:6159 6160 6161 6162 6163 6164 6165 6166 6167 6168 6169 6170 6171 6172 6173 6174 6175 6176 6177 6178,https://en.wikipedia.org:443/wiki/The_Washington_Post:2452,https://en.wikipedia.org:443/wiki/Sports_in_South_Carolina:778 779 780,https://en.wikipedia.org:443/wiki/New_England:4046,https://www.nytimes.com:443/interactive/2024/03/28/travel/things-to-do-mumbai.html:572,https://en.wikipedia.org:443/wiki/New_England_Patriots:5087,https://en.wikipedia.org:443/wiki/USA_Baseball:2620,https://en.wikipedia.org:443/wiki/Iroquois:5665 5666 5667 5668 5669 5670 5671 5672 5673 5674 5675 5676 5677 5678 5679 5680 5681 5682 