gregg gregg-0 852 https://en.wikipedia.org:443/wiki/Boston_Red_Sox:4451,https://www.theatlantic.com:443/magazine/archive/2023/01/homelessness-affordable-housing-crisis-democrats-causes/672224/:508 509,https://en.wikipedia.org:443/wiki/The_Washington_Post:2468 2469,https://en.wikipedia.org:443/wiki/Supreme_Court_of_the_United_States:6941 6942,https://en.wikipedia.org:443/wiki/New_England:4099,https://en.wikipedia.org:443/wiki/Race_and_maternal_health_in_the_United_States:1493,https://www.azcentral.com:443/story/sports/nfl/cardinals/2015/09/06/nfls-dynasties-decade/71605710/:332 333,https://en.wikipedia.org:443/wiki/NBA:2793,https://en.wikipedia.org:443/wiki/MLB_Network:1768,https://en.wikipedia.org:443/wiki/United_States_men%27s_national_soccer_team:3537 3538 3539 3540 3541 3542 3543 3544 3545,https://en.wikipedia.org:443/wiki/Housing_in_the_United_States:585 