ground ground-0 9585 https://en.wikipedia.org:443/wiki/Sports_in_El_Salvador:1317,https://www.battlefields.org:443/preserve/saved-land:303 304,https://www.azcentral.com:443/story/sports/nfl/cardinals/2015/09/06/nfls-dynasties-decade/71605710/:334,https://en.wikipedia.org:443/wiki/American_Revolution:6855,https://en.wikipedia.org:443/wiki/Immigrant_health_care_in_the_United_States:2153,https://www.nytimes.com:443/live/2024/05/04/world/israel-gaza-war-hamas:739 740 741 742 743,https://en.wikipedia.org:443/wiki/Sports_in_Papua_New_Guinea:434 435,https://en.wikipedia.org:443/wiki/Sports_in_South_Korea:797,https://en.wikipedia.org:443/wiki/Olympic_Games:4866 4867 4868,https://en.wikipedia.org:443/wiki/National_monument_(United_States):627,https://en.wikipedia.org:443/wiki/Architecture_of_the_United_States:2688 2689,https://www.nytimes.com:443/section/reader-center:250,https://en.wikipedia.org:443/wiki/Comparison_of_U.S._state_and_territory_governments:727,https://www.nytimes.com:443/video/us/100000007348445/breonna-taylor-death-cops.html:393 394,https://en.wikipedia.org:443/wiki/Spanish%E2%80%93American_War:6036 6037 6038,https://en.wikipedia.org:443/wiki/Indiana:3842,https://en.wikipedia.org:443/wiki/Great_Recession_in_the_United_States:2277,https://en.wikipedia.org:443/wiki/Baseball:4108 4109 4110 4111 4112 4113 4114 4115 4116 4117 4118 4120,https://en.wikipedia.org:443/wiki/MLB_Network:1769,https://en.wikipedia.org:443/wiki/Fenway_Park:4312 4313 4314 4315 4316 4317 4318 4319 4320 4321 4322 4323 4324 4325 4326 4327 4328 4329 4330 4331 4332 4333 4334 4335 4336 4337 4338 4339 4340,https://www.independent.co.uk:443/sport/us-sport/nba/draft-2020-what-time-start-uk-b1725070.html:309,https://www.nytimes.com:443/section/world:526,https://en.wikipedia.org:443/wiki/Literacy_in_the_United_States:2368,https://en.wikipedia.org:443/wiki/Ice_hockey:2639,https://www.nytimes.com:443/2024/05/03/climate/nasa-satellites-data.html:389,https://en.wikipedia.org:443/wiki/American_exceptionalism:2785,https://en.wikipedia.org:443/wiki/Constitution_of_the_United_States:5775 5776 5777 5778,https://en.wikipedia.org:443/wiki/Horse_racing_in_the_United_States:566 567,https://en.wikipedia.org:443/wiki/National_League_(baseball):1496 1497,https://www.independent.co.uk:443/extras/indybest/house-garden:499,https://www.nytimes.com:443/2024/05/03/arts/design/stanley-stellar-frieze-photography.html:340,https://en.wikipedia.org:443/wiki/War_in_Afghanistan_(2001%E2%80%932021):7789 7790 7791 7792 7793 7794 7795 7796 7797,https://en.wikipedia.org:443/wiki/American_League:880,https://en.wikipedia.org:443/wiki/Supreme_Court_of_the_United_States:6961 6962 6963 6964,https://www.nytimes.com:443/2017/11/24/opinion/vietnam-the-chemical-war.html?mtrref=www.google.ca&amp;assetType=opinion:436,https://history.army.mil:443/books/wwii/persian/index.htm:434,https://en.wikipedia.org:443/wiki/Snowboarding:1583 1584,https://www.nytimes.com:443/live/2024/05/03/world/israel-gaza-war-hamas:679 680,https://www.nytimes.com:443/2024/05/01/magazine/catholic-cousin-annulment-ethics.html:280 281 282,https://en.wikipedia.org:443/wiki/New_England_Patriots:5149 5150,https://en.wikipedia.org:443/wiki/Culture_of_the_United_States:4637 4638,https://www.cookingchanneltv.com:443/recipes/tia-mowry/spaghetti-and-turkey-meatballs-2803024:377 378 379,https://theconversation.com:443/the-rise-and-rise-of-ultimate-fighting-and-why-boxing-is-now-so-passe-55910:263,https://www.nytimes.com:443/section/realestate:275,https://cooking.nytimes.com:443/recipes/1024469-tomato-cheddar-toasts:641 642,https://en.wikipedia.org:443/wiki/History_of_the_United_States_(1849%E2%80%931865):2347 2348,https://en.wikipedia.org:443/wiki/Sports_in_India:6216 6217 6218 6219 6220 6221 6222,https://en.wikipedia.org:443/wiki/History_of_the_United_States_(1945%E2%80%931964):3713 3714 3716 3717,https://en.wikipedia.org:443/wiki/United_States_federal_civil_service:1131,https://www.law.cornell.edu:443/supremecourt/text/74/700:2261 2262,https://en.wikipedia.org:443/wiki/Sports_in_Washington:1893 1894,https://en.wikipedia.org:443/wiki/History_of_the_United_States_(2008%E2%80%93present):4565 4566,https://en.wikipedia.org:443/wiki/NBA:2805,https://www.nytimes.com:443/2024/04/18/t-magazine/chalet-des-iles-paris-restaurant.html:551,https://www.nytimes.com:443/2024/05/02/style/central-park-hat-luncheon.html:321,https://en.wikipedia.org:443/wiki/Disc_golf_in_the_United_States:519,https://en.wikipedia.org:443/wiki/National_Football_League:3072 3073,https://en.wikipedia.org:443/wiki/Iroquois:5766 5767 5768 5769 5770 5771 5772 5773 5774 5775 5776 5779 5780 5781,https://en.wikipedia.org:443/wiki/United_States_Declaration_of_Independence:4509,https://www.nytimes.com:443/section/arts/television?page=3:290,https://en.wikipedia.org:443/wiki/Beach_volleyball:2061 2062 2063 2064 2065 2066,https://www.bbc.co.uk:443/news/world-asia-35169478:395,https://cooking.nytimes.com:443/recipes/1016295-mint-julep:629,https://en.wikipedia.org:443/wiki/U.S._state:2201 2202,https://www.nytimes.com:443/section/jobs:119,https://cooking.nytimes.com:443/recipes/1022283-country-panzanella-with-watermelon-dressing:713 714,https://en.wikipedia.org:443/wiki/Soccer_in_the_United_States:3504,https://www.nytimes.com:443/video/last-word:497,https://www.nytimes.com:443/2024/05/04/world/europe/uk-rishi-sunak-conservatives-elections.html:369,https://en.wikipedia.org:443/wiki/Terrorism_in_the_United_States:4918 4919,https://en.wikipedia.org:443/wiki/Sports_in_Ghana:1235,https://en.wikipedia.org:443/wiki/United_States_Aquatic_Sports:387,https://www.nytimes.com:443/by/emily-cochrane:177,https://www.nytimes.com:443/2024/05/04/world/middleeast/cindy-mccain-gaza-famine.html:269 270,https://www.nytimes.com:443/reviews/dining:187,https://en.wikipedia.org:443/wiki/Agriculture_in_the_United_States:2423,https://www.nytimes.com:443/live/2024/05/04/us/college-campus-protests:1282 1283 1284 1285 1286 1287,https://en.wikipedia.org:443/wiki/College_basketball:2758 2759,https://en.wikipedia.org:443/wiki/Greenhouse_gas_emissions_by_the_United_States:2000,https://www.nytimes.com:443/live/2024/01/19/world/israel-hamas-news/a-un-official-says-israeli-treatment-of-detainees-may-amount-to-torture?smid=url-share:1296 1297,https://en.wikipedia.org:443/wiki/Cold_War:8213 8214 8215 8216 8217,https://en.wikipedia.org:443/wiki/Boston:5859 5860 5861 5862 5863 5864 5865 5866,https://en.wikipedia.org:443/wiki/Sports_in_Venezuela:1032 1033,https://en.wikipedia.org:443/wiki/Francis_Olympic_Field:879 880 881 882 883 884 885 886 887,https://www.nytimes.com:443/2024/05/02/opinion/israel-saudi-arabia.html:407,https://www.theguardian.com:443/world/2001/oct/27/afghanistan.terrorism6:276 277,https://www.independent.co.uk:443/competitions:129,https://en.wikipedia.org:443/wiki/The_Washington_Post:2475,https://www.cnn.com:443/2020/09/26/politics/supreme-court-conservative/index.html:644,https://www.nytimes.com:443/2024/05/04/opinion/alexandria-ocasio-cortez.html:537 538,https://www.tlc.com:443/shows/90-day-fiance-happily-ever-after/photo-galleries/90-day-fiance-happily-ever-after-couples-bios-season-8:382,https://www.dandc.eu:443/en/article/dangers-us-administration-negotiating-taliban-without-involving-afghan-government:283,https://www.nytimes.com:443/2021/08/16/world/asia/afghanistan-taliban-video.html:363,https://cooking.nytimes.com:443/recipes/1018626-eggs-benedict:744 745,https://en.wikipedia.org:443/wiki/Environmental_issues_in_the_United_States:1633,https://en.wikipedia.org:443/wiki/Inter_Miami:2758 2759 2760 2763 2764,https://en.wikipedia.org:443/wiki/Colonial_history_of_the_United_States:6014 6015 6016,https://en.wikipedia.org:443/wiki/National_Reconnaissance_Office:1834 1835 1836 1837 1838 1839 1840 1841 1842,https://www.nytimes.com:443/news-event/israel-hamas-gaza:278 279,https://www.nytimes.com:443/section/education:275,https://en.wikipedia.org:443/wiki/USA_Cricket:869 870 871,https://en.wikipedia.org:443/wiki/Volleyball:2008 2009 2010 2011 2012 2013 2014 2015,https://www.nytimes.com:443/2024/05/03/opinion/us-africa-niger-chad.html:288,https://en.wikipedia.org:443/wiki/Professional_boxer:900,https://www.nytimes.com:443/spotlight/graphics?page=10:946 947 948,https://en.wikipedia.org:443/wiki/Henley_Royal_Regatta:1574 1575 1576 1577,https://en.wikipedia.org:443/wiki/Sports_in_Georgia_(country):475,https://en.wikipedia.org:443/wiki/Outline_of_the_history_of_the_United_States:1911 1912,https://www.nytimes.com:443/2005/09/18/opinion/conventional-wisdom.html:226,https://www.nytimes.com:443/books/best-sellers/:830,https://en.wikipedia.org:443/wiki/Southern_United_States:4839 4840 4841 4842,https://en.wikipedia.org:443/wiki/United_States_Olympic_%26_Paralympic_Committee:1514,https://www.nytimes.com:443/2024/04/22/us/politics/israel-gaza-hamas-war.html:578 579 580 581,https://en.wikipedia.org:443/wiki/Boston_Red_Sox:4457 4458 4459 4460 4461 4462 4463 4464,https://en.wikipedia.org:443/wiki/MLS:3868 3871,https://en.wikipedia.org:443/wiki/Articles_of_Confederation:3253 3254,https://en.wikipedia.org:443/wiki/United_States_Polo_Association:573,https://www.pbs.org:443/wgbh/americanexperience/features/klansville-faq/:459 460 461 462,https://en.wikipedia.org:443/wiki/Vietnam_War:7139 7140 7141 7142 7143 7144 7145 7146 7147 7148 7149 7150 7151 7152 7153 7154 7155,https://www.nytimes.com:443/2024/05/02/us/blast-mortar-brain-injury-military.html:509 510 511,https://en.wikipedia.org:443/wiki/Sports_in_Yemen:511,https://www.independent.co.uk:443/tv/travel-smart:480 481 482 483 484 485 486 487,https://www.nytimes.com:443/by/liam-stack:141 