guid guid-0 11228 https://en.wikipedia.org:443/wiki/Sports_in_Syria:802,https://www.telegraph.co.uk:443/news/worldnews/asia/afghanistan/8693247/Secret-peace-talks-between-US-and-Taliban-collapse-over-leaks.html:264 265,https://www.azcentral.com:443/story/sports/nfl/cardinals/2015/09/06/nfls-dynasties-decade/71605710/:336,https://en.wikipedia.org:443/wiki/Sports_in_Samoa:650,https://www.nytimes.com:443/2024/05/02/learning/word-of-the-day-rapport.html:138,https://en.wikipedia.org:443/wiki/History_of_the_United_States_(2008%E2%80%93present):4624 4625,https://en.wikipedia.org:443/wiki/Fenway_Park:4355 4356 4357 4358 4359 4360,https://en.wikipedia.org:443/wiki/Soccer_in_the_United_States:3545,https://www.nytimes.com:443/section/reader-center:254,https://en.wikipedia.org:443/wiki/National_monument_(United_States):629,https://www.nfl.com:443/standings/:325,https://en.wikipedia.org:443/wiki/Constitution_of_the_United_States:5812 5813 5814 5815,https://www.ncaa.org:443/sb_output.aspx?form=28:83,https://en.wikipedia.org:443/wiki/Perpetual_Union:1423,https://www.forbes.com:443/2008/09/09/mls-soccer-beckham-biz-sports-cz_kb_0909mlsvalues.html:189 190,https://www.nfl.com:443/standings/conference/2023/REG:297,https://www.wired.com:443/2016/08/olympic-cities-everywhere/:354 355 356,https://en.wikipedia.org:443/wiki/War_in_Afghanistan_(2001%E2%80%932021):7895 7896,https://www.theguardian.com:443/us/soccer:397,https://cooking.nytimes.com:443/recipes/1024760-chocolate-layer-cake:890 891 892 893 894 895 896 897 898 899,https://en.wikipedia.org:443/wiki/American_Revolution:6888 6889 6890 6891 6892 6893,https://www.nytimes.com:443/spotlight/podcasts?page=6:1215,https://www.independent.co.uk:443/sport/us-sport/nba/draft-2020-what-time-start-uk-b1725070.html:310,https://bolavip.com:443/en:325,https://en.wikipedia.org:443/wiki/Education_in_the_United_States:4589 4590 4591 4592 4593 4594,https://www.nytimes.com:443/2019/06/19/us/newsom-native-american-apology.html:359,https://www.nytimes.com:443/2024/05/03/arts/design/stanley-stellar-frieze-photography.html:345,https://www.patriots.com:443/news/check-out-the-2016-patriots-color-rush-jerseys-270621:471,https://en.wikipedia.org:443/wiki/Boston_Red_Sox:4479 4480 4481 4482 4483,https://www.patriots.com:443/cheerleaders/pat-patriot:289,https://www.nytimes.com:443/2024/04/20/health/seniors-home-equity-mortgages.html:334,https://en.wikipedia.org:443/wiki/Cold_War:8281 8282 8283 8284,https://en.wikipedia.org:443/wiki/Articles_of_Confederation:3272,https://nytlicensing.com:443/timesdigest/:327 328,https://www.usatoday.com:443/story/news/politics/2022/08/04/krysten-sinema-inflation-reduction-act-senator-democrats-vote/10234906002/:173,https://www.patriots.com:443/team/players-roster/:298,https://en.wikipedia.org:443/wiki/Vietnam_War:7218 7219 7220 7221 7222,https://en.wikipedia.org:443/wiki/Portal:Current_events:1087 1088,https://en.wikipedia.org:443/wiki/Wikipedia:File_upload_wizard:852 853,https://en.wikipedia.org:443/wiki/Sports_in_India:6254 6255,https://www.ncaa.org:443/sports/2021/4/21/division-ii-academics.aspx:153,https://en.wikipedia.org:443/wiki/Basketball_in_the_United_States:446,https://www.nfl.com:443/teams/philadelphia-eagles/:264,https://en.wikipedia.org:443/wiki/Independent_city_(United_States):596,https://www.nytimes.com:443/2024/04/18/t-magazine/chalet-des-iles-paris-restaurant.html:564,https://en.wikipedia.org:443/wiki/National_Football_League:3079,https://en.wikipedia.org:443/wiki/History_of_the_United_States_(1945%E2%80%931964):3752,https://www.nytimes.com:443/live/2024/01/19/world/israel-hamas-news/a-un-official-says-israeli-treatment-of-detainees-may-amount-to-torture?smid=url-share:1319,https://www.nfl.com:443/teams/indianapolis-colts/:263,https://www.nytimes.com:443/spotlight/graphics?page=10:952 953,https://cooking.nytimes.com:443/recipes/1018626-eggs-benedict:747 748 749 750 751 752 753 754 755 756,https://www.patriots.com:443/news/ben-coates-elected-to-patriots-hall-of-fame-140866:608,https://www.thetimes.co.uk:443/article/susan-hall-tory-mayoral-candidate-liked-tweet-praising-enoch-powell-zqsr6lvfk:121 122,https://www.nytimes.com:443/2014/11/11/technology/obama-net-neutrality-fcc.html:309,https://en.wikipedia.org:443/wiki/Sports_in_Belize:518 519,https://en.wikipedia.org:443/wiki/Ice_hockey:2646 2647 2648,https://en.wikipedia.org:443/wiki/Snowboarding:1591,https://en.wikipedia.org:443/wiki/Arkansas_River:1133 1134 1135 1136,https://en.wikipedia.org:443/wiki/National_Reconnaissance_Office:1860 1861,https://en.wikipedia.org:443/wiki/Architecture_of_the_United_States:2696 2697 2698 2699 2700 2701 2702,https://www.nytimes.com:443/section/food:231,https://cooking.nytimes.com:443/recipes/1024469-tomato-cheddar-toasts:643 644 645 646 647 648 649 650 651 652,https://www.nytimes.com:443/international/:284,https://cooking.nytimes.com:443/recipes/1025421-creole-broiled-shrimp-and-baby-corn:437 438 439 440 441 442 443 444 445 446,https://en.wikipedia.org:443/wiki/The_Washington_Post:2495,https://en.wikipedia.org:443/wiki/Summer_Olympic_Games:2360 2361 2362,https://en.wikipedia.org:443/wiki/Supreme_Court_of_the_United_States:6998 6999 7000 7001 7002 7003 7004 7005 7006 7007 7008 7009 7010 7011 7012,https://en.wikipedia.org:443/wiki/Beach_volleyball:2070 2071 2072 2073,https://nytlicensing.com:443/content/harvard-health-publishing/:660 661,https://en.wikipedia.org:443/wiki/Spanish%E2%80%93American_War:6132 6134 6135,https://en.wikipedia.org:443/wiki/United_States_federal_civil_service:1141,https://www.packers.com:443/community/shareholders:233,https://www.nfl.com:443/teams/baltimore-ravens/:265,https://en.wikipedia.org:443/wiki/Sergeant_at_Arms_of_the_United_States_Senate:808,https://www.nytimes.com:443/spotlight/podcasts:826,https://en.wikipedia.org:443/wiki/West_Coast_of_the_United_States:1301,https://www.nytimes.com:443/section/fashion?page=9:1089,https://en.wikipedia.org:443/wiki/Major_professional_sports_teams_of_the_United_States_and_Canada:756,https://www.businessinsider.com:443/guides/tech:514 515 516,https://en.wikipedia.org:443/wiki/Southern_United_States:4906 4907 4908 4909,https://www.nfl.com:443/teams/seattle-seahawks/:249,https://www.ncaa.org:443/sports/2021/5/3/membership-directory.aspx:105,https://www.nytimes.com:443/2024/04/29/learning/what-should-be-done-about-the-gender-pay-gap-in-sports.html:290,https://en.wikipedia.org:443/wiki/Indiana:3890 3891 3892 3893 3894 3895 3896,https://www.independent.co.uk:443/competitions:130,https://www.nytimes.com:443/2019/01/31/opinion/letters/letters-to-editor-new-york-times-women.html:210,https://en.wikipedia.org:443/wiki/Colonial_history_of_the_United_States:6070 6071 6072,https://en.wikipedia.org:443/wiki/Sports_in_Cuba:597,https://www.nytimes.com:443/section/books/review?page=7:697,https://nytlicensing.com:443/license-our-content/:311 312,https://en.wikipedia.org:443/wiki/Culture_of_the_United_States:4675 4676 4677 4678 4679,https://www.ncaa.org:443/sports/2021/5/11/division-i-finances.aspx:138,https://www.nytimes.com:443/section/t-magazine:408 409 410 411 412,https://www.tlc.com:443/shows/90-day-fiance-happily-ever-after/photo-galleries/90-day-fiance-happily-ever-after-couples-bios-season-8:384,https://en.wikipedia.org:443/wiki/Forbes:997 998,https://en.wikipedia.org:443/wiki/United_States_Reports:344,https://nytlicensing.com:443/:452 453 454,https://en.wikipedia.org:443/wiki/United_States_Polo_Association:581 582,https://nytlicensing.com:443/magazines/:408 409,https://en.wikipedia.org:443/wiki/Town_meeting:1165 1166 1167,https://www.almanac.com:443/fact/how-much-is-two-bits-and-where:115,https://en.wikipedia.org:443/wiki/United_States_Declaration_of_Independence:4528 4529 4530,https://en.wikipedia.org:443/wiki/College_basketball:2775,https://en.wikipedia.org:443/wiki/Outline_of_the_history_of_the_United_States:1930 1931,https://en.wikipedia.org:443/wiki/Public_utilities_commission:592,https://cooking.nytimes.com:443/recipes/1023559-ina-gartens-bourbon-chocolate-pecan-pie:706 707 708 709 710 711 712 713 714 715,https://spoiler.bolavip.com:443/en/celebrities/ryan-gosling-net-worth:236 237,https://www.nytimes.com:443/section/education:278,https://en.wikipedia.org:443/wiki/Americans:3748 3749 3751,https://en.wikipedia.org:443/wiki/United_States_Olympic_%26_Paralympic_Committee:1527,http://www.nationalletter.org:80/:24 25 26,https://en.wikipedia.org:443/wiki/Special_district_(United_States):809 810 811 812,https://www.nytimes.com:443/privacy/cookie-policy:251,https://en.wikipedia.org:443/wiki/Timeline_of_United_States_inventions_(after_1991):1112,https://en.wikipedia.org:443/wiki/Boston:5897 5898 5899 5900 5901 5902 5903 5904 5905 5906 5907 5908,https://nirsa.net:443/nirsa/:156,https://www.theguardian.com:443/us-news/2020/aug/25/qanon-conspiracy-theory-explained-trump-what-is:481 482,https://en.wikipedia.org:443/wiki/Speaker_of_the_United_States_House_of_Representatives:1848 1849 1850 1851 1852,https://cooking.nytimes.com:443/recipes/1019333-millionaires-shortbread:695 696 697 698 699 700 701 702 703 704,https://www.commanders.com:443/news/commanders-agree-to-trade-de-montez-sweat-to-chicago-bears:238,https://cooking.nytimes.com:443/recipes/1013611-rhubarb-upside-down-cake:746 747 748 749 750 751 752 753 754 755,https://en.wikipedia.org:443/wiki/New_England:4130 4131 4132 4133 4134 4135 4136 4137 4138 4140,https://www.nytimes.com:443/ca/:286 287,https://cooking.nytimes.com:443/recipes/1016295-mint-julep:633 634 635 636 637 638 639 640 641 642,https://en.wikipedia.org:443/wiki/U.S._state:2222 2223 2224 2225 2226 2227,https://en.wikipedia.org:443/wiki/Iroquois:5822 5823 5824 5825 5826,https://www.independent.co.uk:443/extras/indybest/house-garden:500 501 502 503 504 505 506,https://en.wikipedia.org:443/wiki/Template_talk:Americas_topic:329,https://www.independent.co.uk:443/tv/travel-smart:492 493,https://cooking.nytimes.com:443/christmas:667 668 669 670 671 672 673 674 675,https://en.wikipedia.org:443/wiki/MLS:3895 3896 3897,https://www.nytimes.com:443/:345 346,https://en.wikipedia.org:443/wiki/Antisemitism_in_the_United_States:1889 1890,https://www.nytimes.com:443/live/2024/05/04/us/college-campus-protests:1306,http://www.tvguidelines.org:80/ratings.html:66 67,https://en.wikipedia.org:443/wiki/Olympic_Games:4900 4901 4902,https://www.saturdaydownsouth.com:443/sports/ranking-top-25-rivalries-college-sports-2023/:791 792,https://www.nytimes.com:443/books/best-sellers/:833,https://www.nytimes.com:443/2024/05/04/opinion/trump-second-term-illiberalism.html:446,https://cooking.nytimes.com:443/recipes/1022283-country-panzanella-with-watermelon-dressing:720 721 722 723 724 725 726 727 728 729,https://en.wikipedia.org:443/wiki/Baseball:4133 4134 4135 4136 4137 4138,https://en.wikipedia.org:443/wiki/Prescription_drug_prices_in_the_United_States:2697,https://www.nytimes.com:443/section/travel:266 267,https://cooking.nytimes.com:443/:1042 1043 1044 1045 1046 1047 1048 1049 1050 1051,https://en.wikipedia.org:443/wiki/Federal_tribunals_in_the_United_States:852,https://en.wikipedia.org:443/wiki/United_States_dollar:3672,https://en.wikipedia.org:443/wiki/Sports_in_Poland:991,https://www.businessinsider.com:443/personal-finance/mortgages:250 251 252 253 254 255 256 