hala hala-0 345 https://en.wikipedia.org:443/wiki/National_Football_League:3082 3083 3084 3085 3086,https://en.wikipedia.org:443/wiki/New_England_Patriots:5170 5171,https://www.azcentral.com:443/story/sports/nfl/cardinals/2015/09/06/nfls-dynasties-decade/71605710/:337 338 339,https://en.wikipedia.org:443/wiki/List_of_current_United_States_district_judges:4649 