halei halei-0 867 https://www.azcentral.com:443/story/sports/nfl/cardinals/2015/09/06/nfls-dynasties-decade/71605710/:340 341,https://www.nytimes.com:443/subscription:80,http://www.redsoxdiehard.com:80/players/unifnums.html:1923,https://www.nytimes.com:443/live/2024/05/04/us/biden-trump-campaign:269 270 271 272 273 274 275 276,https://en.wikipedia.org:443/wiki/History_of_the_United_States_(1945%E2%80%931964):3770 3771 3772,https://www.nytimes.com:443/spotlight/graphics?page=10:959 960 961,https://www.nytimes.com:443/interactive/2023/us/politics/presidential-candidates-2024.html:252,https://www.nytimes.com:443/by/pamela-paul:157,https://www.nytimes.com:443/section/politics:193,https://www.nytimes.com:443/2021/08/16/world/asia/afghanistan-taliban-video.html:370 371 372,https://www.nytimes.com:443/spotlight/visual-investigations:668 669 670 671 672 673 674 675 676 677 678 679 