halftim halftim-0 587 https://en.wikipedia.org:443/wiki/United_States_men%27s_national_soccer_team:3657,https://en.wikipedia.org:443/wiki/Sports_in_the_United_States:1947,https://en.wikipedia.org:443/wiki/WNBA%27s_Top_15_Team:326,https://www.azcentral.com:443/story/sports/nfl/cardinals/2015/09/06/nfls-dynasties-decade/71605710/:343,https://en.wikipedia.org:443/wiki/Culture_of_the_United_States:4715,https://en.wikipedia.org:443/wiki/New_England_Patriots:5176 5177 5178,https://en.wikipedia.org:443/wiki/Soccer_in_the_United_States:3556,https://commons.wikimedia.org:443/wiki/Category:Sports_in_Maryland:224 