half half-0 10920 https://en.wikipedia.org:443/wiki/Greenhouse_gas_emissions_by_the_United_States:2018 2019 2020,https://cooking.nytimes.com:443/recipes/1024469-tomato-cheddar-toasts:653 654 655 656,https://www.nytimes.com:443/2024/05/04/business/energy-environment/tesla-electric-vehicles-supercharger.html:493,https://en.wikipedia.org:443/wiki/United_States_men%27s_national_soccer_team:3655 3656,https://en.wikipedia.org:443/wiki/Agriculture_in_the_United_States:2463 2464 2465 2466 2467,https://www.nytimes.com:443/2024/05/04/us/politics/trump-biden-campaign-young-voters.html:337,https://en.wikipedia.org:443/wiki/Colonial_history_of_the_United_States:6084 6085 6086 6087 6088,https://en.wikipedia.org:443/wiki/Fenway_Park:4376 4377 4378,https://en.wikipedia.org:443/wiki/History_of_the_United_States_(1849%E2%80%931865):2378 2379 2380 2381 2382 2383,https://spoiler.bolavip.com:443/en/celebrities/ryan-gosling-net-worth:248,https://cooking.nytimes.com:443/recipes/1016295-mint-julep:643 644 645,https://www.nytimes.com:443/section/science?page=9:1018 1019,https://www.cookingchanneltv.com:443/recipes/tia-mowry/spaghetti-and-turkey-meatballs-2803024:380,https://en.wikipedia.org:443/wiki/Architecture_of_the_United_States:2707 2708,https://en.wikipedia.org:443/wiki/Sports_in_Maryland:2221,https://www.nytimes.com:443/slideshow/2007/12/27/obituaries/notable-obits-slideshow_index.html:20,https://www.azcentral.com:443/story/sports/nfl/cardinals/2015/09/06/nfls-dynasties-decade/71605710/:342,https://en.wikipedia.org:443/wiki/Southern_United_States:4932 4933 4934 4935 4936 4937,https://en.wikipedia.org:443/wiki/Indiana:3903 3904 3905 3906 3907 3908,https://www.nytimes.com:443/section/t-magazine:414,https://en.wikipedia.org:443/wiki/Sports_in_France:1161,https://en.wikipedia.org:443/wiki/Rugby_union_at_the_Summer_Olympics:831,https://www.nytimes.com:443/2024/05/04/opinion/alexandria-ocasio-cortez.html:547,https://www.cnn.com:443/2020/09/26/politics/supreme-court-conservative/index.html:652 653,https://www.saturdaydownsouth.com:443/sports/ranking-top-25-rivalries-college-sports-2023/:793 794,https://en.wikipedia.org:443/wiki/Great_Recession_in_the_United_States:2326,https://www.nytimes.com:443/section/reader-center:259,https://en.wikipedia.org:443/wiki/United_States_Minor_Outlying_Islands:578,https://en.wikipedia.org:443/wiki/Antisemitism_in_the_United_States:1904,https://en.wikipedia.org:443/wiki/Columbia_(personification):1227,https://en.wikipedia.org:443/wiki/Maternal_mortality_in_the_United_States:1759,https://en.wikipedia.org:443/wiki/Education_in_the_United_States:4611 4612 4613 4614 4615,https://en.wikipedia.org:443/wiki/Environmental_issues_in_the_United_States:1662 1663 1664 1665,https://www.nytimes.com:443/section/realestate:279,https://www.patriots.com:443/news/ben-coates-elected-to-patriots-hall-of-fame-140866:609,https://nevadasportsnet.com:443/news/reporters/mw-football-attendance-analysis-biggest-risers-and-fallers-year-over-year:142,https://www.nytimes.com:443/spotlight/the-great-read:108,https://en.wikipedia.org:443/wiki/History_of_the_United_States_(1945%E2%80%931964):3773 3774 3775 3776 3777,https://en.wikipedia.org:443/wiki/Spanish%E2%80%93American_War:6169 6170 6171,https://en.wikipedia.org:443/wiki/Summer_Olympic_Games:2386 2387,https://en.wikipedia.org:443/wiki/Terrorism_in_the_United_States:5081,https://en.wikipedia.org:443/wiki/Housing_in_the_United_States:595 596 597 598,https://www.nytimes.com:443/section/books/review?page=7:701,https://www.theguardian.com:443/sport/2017/aug/19/will-mcgregor-v-mayweather-save-american-boxing-or-bury-it?CMP=share_btn_link:686 687 688,https://www.nytimes.com:443/video/us/100000007348445/breonna-taylor-death-cops.html:400,https://en.wikipedia.org:443/wiki/Federal_law_enforcement_in_the_United_States:1328,https://cooking.nytimes.com:443/recipes/1023559-ina-gartens-bourbon-chocolate-pecan-pie:716 717,https://cooking.nytimes.com:443/recipes/1013611-rhubarb-upside-down-cake:756 757 758 759 760,https://www.nytimes.com:443/2023/04/14/us/politics/mike-pompeo-president-2024.html:230,https://en.wikipedia.org:443/wiki/New_England_Patriots:5172 5173 5174 5175,https://www.nytimes.com:443/live/2024/01/19/world/israel-hamas-news/a-un-official-says-israeli-treatment-of-detainees-may-amount-to-torture?smid=url-share:1323 1324 1325,https://www.nytimes.com:443/2024/05/04/world/europe/russia-soldiers-women.html:424,https://en.wikipedia.org:443/wiki/Sports_in_Ghana:1252 1253,https://en.wikipedia.org:443/wiki/Supreme_Court_of_the_United_States:7039 7040 7041 7042 7043 7044 7045 7046,https://en.wikipedia.org:443/wiki/Constitution_of_the_United_States:5830 5831,https://en.wikipedia.org:443/wiki/Time_in_the_United_States:714 715,https://en.wikipedia.org:443/wiki/War_in_Afghanistan_(2001%E2%80%932021):7937 7938 7939 7940 7941 7942 7943,https://en.wikipedia.org:443/wiki/Sports_in_the_United_States:1945 1946,https://en.wikipedia.org:443/wiki/Tribal_sovereignty_in_the_United_States:1766 1767,https://en.wikipedia.org:443/wiki/Americans:3778,https://en.wikipedia.org:443/wiki/Culture_of_the_United_States:4710 4711 4712 4713 4714,https://en.wikipedia.org:443/wiki/Democratic_Party_(United_States):5325 5326 5327,https://en.wikipedia.org:443/wiki/College_basketball:2782 2783 2784 2785 2786 2787 2788 2789 2790 2791,https://en.wikipedia.org:443/wiki/United_States_Polo_Association:584,https://en.wikipedia.org:443/wiki/Articles_of_Confederation:3281 3282 3283 3284 3285,https://en.wikipedia.org:443/wiki/2023_Big_Ten_Conference_football_season:1915 1916,https://www.usatoday.com:443/for-subscribers/:107,https://en.wikipedia.org:443/wiki/National_Football_League:3087 3088 3089 3090,https://en.wikipedia.org:443/wiki/Francis_Olympic_Field:909,https://cooking.nytimes.com:443/recipes/1019333-millionaires-shortbread:705 706 707 708,https://en.wikipedia.org:443/wiki/Sports_in_Ethiopia:259,https://en.wikipedia.org:443/wiki/MLS:3907,https://en.wikipedia.org:443/wiki/National_Reconnaissance_Office:1866,https://en.wikipedia.org:443/wiki/Vietnam_War:7265 7266 7267 7268 7269,https://en.wikipedia.org:443/wiki/Iroquois:5869 5870 5871 5872 5873 5874 5875 5876 5877 5878 5879 5880,https://en.wikipedia.org:443/wiki/Cold_War:8319 8320,https://en.wikipedia.org:443/wiki/MLB_Network:1796,https://en.wikipedia.org:443/wiki/Inter_Miami:2812,https://news.gallup.com:443/poll/224864/football-americans-favorite-sport-watch.aspx:508,https://www.nytimes.com:443/trending/:210,https://en.wikipedia.org:443/wiki/Jack_Nicklaus:3500 3501 3502,https://www.nytimes.com:443/section/magazine?page=8:567 568,https://en.wikipedia.org:443/wiki/United_States_Olympic_%26_Paralympic_Committee:1538,https://www.tlc.com:443/parenting/are-men-or-women-more-likely-to-want-kids-study:301 302,https://en.wikipedia.org:443/wiki/Olympic_Games:4940 4941,https://www.nytimes.com:443/books/best-sellers/mass-market-monthly/:321,https://www.nytimes.com:443/section/fashion?page=9:1097,https://en.wikipedia.org:443/wiki/Race_and_maternal_health_in_the_United_States:1542,https://en.wikipedia.org:443/wiki/Sports_in_Armenia:1171 1172,https://cooking.nytimes.com:443/recipes/1022283-country-panzanella-with-watermelon-dressing:730,https://en.wikipedia.org:443/wiki/The_Washington_Post:2506,https://en.wikipedia.org:443/wiki/Snowboarding:1596 1597 1598 1599 1600 1601 1602 1603 1604 1605 1606 1607 1608 1609 1610,https://en.wikipedia.org:443/wiki/West_Coast_of_the_United_States:1314,https://www.fmfstateofmind.com:443/:307 308 309,https://www.almanac.com:443/fact/how-much-is-two-bits-and-where:116,https://www.nytimes.com:443/2024/05/04/nyregion/columbia-protests-arrest-agitators-israel.html:542,https://en.wikipedia.org:443/wiki/Sports_in_El_Salvador:1351,https://www.dandc.eu:443/en/article/dangers-us-administration-negotiating-taliban-without-involving-afghan-government:285,https://www.nytimes.com:443/2024/05/03/opinion/nuclear-power-energy.html:329 330,https://cooking.nytimes.com:443/recipes/1025421-creole-broiled-shrimp-and-baby-corn:447,https://en.wikipedia.org:443/wiki/United_States_dollar:3692 3693 3694 3695 3696 3697 3698 3699 3700 3701 3702 3703 3704 3705 3706 3707 3708 3709 3710 3711 3712 3713 3714 3715 3716 3717,https://archive.curbed.com:443/2020/1/13/21026108/public-housing-faircloth-amendment-election-2020:363,https://www.nytimes.com:443/2024/04/02/world/middleeast/gaza-al-shifa-hospital.html:445 446,https://en.wikipedia.org:443/wiki/Sports_in_Estonia:865,https://en.wikipedia.org:443/wiki/National_League_(baseball):1500,https://www.law.cornell.edu:443/supremecourt/text/74/700:2272 2273,https://en.wikipedia.org:443/wiki/List_of_mountains_of_the_United_States:2816 2817 2818,https://www.commanders.com:443/news/commanders-agree-to-trade-de-montez-sweat-to-chicago-bears:240,https://en.wikipedia.org:443/wiki/Literacy_in_the_United_States:2391,https://www.usatoday.com:443/story/sports/soccer/2017/02/02/nwsl-matches-will-be-shown-on-lifetime-each-saturday/97394336/:129,https://en.wikipedia.org:443/wiki/Baseball:4157 4158 4159 4160 4161 4162 4163 4164 4165 4166 4167,https://www.nytimes.com:443/2024/04/01/fashion/craft-handmade-umbrella-italy.html:393,https://www.nytimes.com:443/section/arts/design:193,https://en.wikipedia.org:443/wiki/Consolidated_city-county:1733 1734,https://en.wikipedia.org:443/wiki/Sports_in_South_Korea:809,https://www.nytimes.com:443/section/health?page=7:794 795 796 797,https://en.wikipedia.org:443/wiki/United_States_Public_Health_Service_Commissioned_Corps:1197 1198 1199 1200,https://en.wikipedia.org:443/wiki/Boston_Red_Sox:4495 4496 4497 4498 4499 4500,https://en.wikipedia.org:443/wiki/Prescription_drug_prices_in_the_United_States:2699 2700 2701 2702 2703,https://en.wikipedia.org:443/wiki/NBA:2822 2823,https://cooking.nytimes.com:443/recipes/1024760-chocolate-layer-cake:902 903 904,https://www.theguardian.com:443/sport/2004/jul/27/cricket.comment:381,https://www.forbes.com:443/2008/09/09/mls-soccer-beckham-biz-sports-cz_kb_0909mlsvalues.html:192,https://en.wikipedia.org:443/wiki/American_exceptionalism:2802,https://cooking.nytimes.com:443/recipes/1018626-eggs-benedict:757,https://en.wikipedia.org:443/wiki/American_Revolution:6918 6919 6920,https://en.wikipedia.org:443/wiki/Fox_Sports_1:2123 2124,https://news.gallup.com:443/topic/retirement.aspx:333 334,https://en.wikipedia.org:443/wiki/Forbes:999,https://en.wikipedia.org:443/wiki/Immigrant_health_care_in_the_United_States:2182,https://www.nytimes.com:443/interactive/2024/05/03/opinion/global-billionaires-tax.html:376,https://en.wikipedia.org:443/wiki/Horse_racing_in_the_United_States:572 573,https://en.wikipedia.org:443/wiki/Sports_in_India:6316 6317 6318 6319,https://en.wikipedia.org:443/wiki/Northern_United_States:300,https://en.wikipedia.org:443/wiki/Boston:5918 5919 5920 5921 5922 5923,https://en.wikipedia.org:443/wiki/Basketball_in_the_United_States:451 452,https://en.wikipedia.org:443/wiki/New_England:4153 4154 4155 4156 4157 4158 