ham ham-0 1350 https://cooking.nytimes.com:443/recipes/1024760-chocolate-layer-cake:905,https://cooking.nytimes.com:443/recipes/1023559-ina-gartens-bourbon-chocolate-pecan-pie:720 721 722,https://bolavip.com:443/en:330 331 332 333 334 335 336 337 338,https://cooking.nytimes.com:443/recipes/1024469-tomato-cheddar-toasts:657,https://en.wikipedia.org:443/wiki/Fox_Sports_1:2125,https://www.nytimes.com:443/section/science?page=9:1021,https://cooking.nytimes.com:443/topics/our-best-pasta-recipes:307 308,https://www.nytimes.com:443/2024/04/18/t-magazine/chalet-des-iles-paris-restaurant.html:565,https://cooking.nytimes.com:443/recipes/1022283-country-panzanella-with-watermelon-dressing:732,https://bolavip.com:443/en/info/privacy:326 327 328 329,https://www.nytimes.com:443/section/science:315,https://www.nytimes.com:443/2024/05/03/theater/the-miser-review-brooklyn.html:186,https://bolavip.com:443/en/info/terms-conditions:260 261 262 263,https://cooking.nytimes.com:443/recipes/1018626-eggs-benedict:760 761 762 763 764 765 766,https://cooking.nytimes.com:443/christmas:683 684 685 686 687 688 689 690 691 692 693 694 695 696 697 698 699 700,https://www.azcentral.com:443/story/sports/nfl/cardinals/2015/09/06/nfls-dynasties-decade/71605710/:353,https://cooking.nytimes.com:443/:1052 1053,https://en.wikipedia.org:443/wiki/Culture_of_the_United_States:4722 4723 