heav heav-0 307 https://www.azcentral.com:443/story/sports/nfl/cardinals/2015/09/06/nfls-dynasties-decade/71605710/:360,https://en.wikipedia.org:443/wiki/Ice_hockey:2696,https://www.nytimes.com:443/2024/05/04/opinion/fat-activist-freedom-health.html:359,https://www.theguardian.com:443/sport/2004/jul/27/cricket.comment:399 