henri henri-0 7434 https://cooking.nytimes.com:443/christmas:710,https://www.nytimes.com:443/section/t-magazine:429,https://en.wikipedia.org:443/wiki/Associate_Justice_of_the_Supreme_Court_of_the_United_States:1208 1209 1210 1211 1212,https://en.wikipedia.org:443/wiki/List_of_mountain_peaks_of_the_United_States:1755 1756 1757 1758 1759 1760,https://en.wikipedia.org:443/wiki/Boston_Red_Sox:4629 4630 4631 4632 4633 4634 4635 4636 4637 4638 4639,https://en.wikipedia.org:443/wiki/Architecture_of_the_United_States:2766 2767 2768 2769 2770 2771,https://en.wikipedia.org:443/wiki/Portal:Current_events:1147 1148 1149,https://cooking.nytimes.com:443/topics/our-best-pasta-recipes:320,https://www.nytimes.com:443/ca/:298,https://en.wikipedia.org:443/wiki/MLS:3956 3957,https://en.wikipedia.org:443/wiki/Speaker_of_the_United_States_House_of_Representatives:1917 1918 1919 1920 1921 1922,https://en.wikipedia.org:443/wiki/History_of_the_United_States_(1945%E2%80%931964):3866 3867 3868 3869 3870,http://www.redsoxdiehard.com:80/players/unifnums.html:2035 2036 2037 2038 2039 2040 2041,https://www.nytimes.com:443/2024/05/04/world/europe/sadiq-khan-london-mayor-results.html:278,https://en.wikipedia.org:443/wiki/Education_in_the_United_States:4695,https://www.nytimes.com:443/2024/04/18/t-magazine/chalet-des-iles-paris-restaurant.html:579,https://www.independent.co.uk:443/tv/travel-smart:517,https://en.wikipedia.org:443/wiki/Terrorism_in_the_United_States:5182,https://en.wikipedia.org:443/wiki/Sports_in_Maryland:2262,https://en.wikipedia.org:443/wiki/Great_Recession_in_the_United_States:2353,https://en.wikipedia.org:443/wiki/Arkansas_River:1157,https://en.wikipedia.org:443/wiki/Sports_in_Kentucky:1788 1789 1790 1791 1792 1793,https://www.azcentral.com:443/story/sports/nfl/cardinals/2015/09/06/nfls-dynasties-decade/71605710/:362 363,https://en.wikipedia.org:443/wiki/United_States_Olympic_%26_Paralympic_Committee:1573,https://www.nytimes.com:443/2024/05/04/world/europe/uk-rishi-sunak-conservatives-elections.html:391,https://en.wikipedia.org:443/wiki/Boston:6117 6118 6119 6120 6121 6122,https://en.wikipedia.org:443/wiki/Vietnam_War:7471 7472 7473 7474 7475 7476 7477 7478,https://en.wikipedia.org:443/wiki/Sports_in_France:1185 1186 1187,https://www.nytimes.com:443/:361,https://en.wikipedia.org:443/wiki/American_exceptionalism:2874 2875,https://en.wikipedia.org:443/wiki/Outline_of_the_history_of_the_United_States:1977 1978 1979,https://en.wikipedia.org:443/wiki/United_States_federal_civil_service:1159,https://en.wikipedia.org:443/wiki/Supreme_Court_of_the_United_States:7191 7192 7193,https://en.wikipedia.org:443/wiki/Town_meeting:1208 1209 1210,https://en.wikipedia.org:443/wiki/History_of_the_United_States_(1849%E2%80%931865):2438 2439 2440,https://www.nytimes.com:443/2024/04/24/podcasts/laufey-gen-zs-jazz-icon-sings-for-anxious-generation.html:734 735 736 737 738 739 740 741 742 743 744 745,https://en.wikipedia.org:443/wiki/Sports_in_Finland:1430 1431,https://en.wikipedia.org:443/wiki/Fenway_Park:4512 4513 4514 4515 4516,https://en.wikipedia.org:443/wiki/Americans:3847 3848,https://commons.wikimedia.org:443/wiki/Category:Sports_in_the_United_States:323,https://en.wikipedia.org:443/wiki/College_basketball:2855,https://en.wikipedia.org:443/wiki/United_States_Reports:349,https://en.wikipedia.org:443/wiki/New_England_Patriots:5436 5437 5438 5439,https://en.wikipedia.org:443/wiki/USA_Baseball:2720,https://en.wikipedia.org:443/wiki/Tribal_sovereignty_in_the_United_States:1802,https://www.nytimes.com:443/section/obituaries:308,https://www.espn.com:443/college-football/boxscore/_/gameId/401520324:142 143,https://en.wikipedia.org:443/wiki/List_of_current_United_States_district_judges:4753 4754 4755 4756 4757 4758 4759,https://en.wikipedia.org:443/wiki/Spanish%E2%80%93American_War:6335 6336 6337 6338 6339 6340 6341 6342 6343 6344,https://en.wikipedia.org:443/wiki/Soccer_in_the_United_States:3600,https://cooking.nytimes.com:443/recipes/1016295-mint-julep:686,https://www.espn.com:443/college-football/boxscore/_/gameId/401520200:138,https://en.wikipedia.org:443/wiki/Constitution_of_the_United_States:5945 5946 5947 5948 5949 5950 5951 5952 5953 5954 5955 5956 5957 5958,https://en.wikipedia.org:443/wiki/Summer_Olympic_Games:2452,https://en.wikipedia.org:443/wiki/Baseball:4238 4239,https://en.wikipedia.org:443/wiki/Sergeant_at_Arms_of_the_United_States_Senate:837,https://www.forbes.com:443/sites/zachslaton/2012/10/15/how-the-mls-playoff-format-punishes-ambitious-teams/:398,https://en.wikipedia.org:443/wiki/List_of_mountains_of_the_United_States:2928 2929 2930 2931 2932,https://www.nytimes.com:443/international/:295,https://en.wikipedia.org:443/wiki/Iroquois:6110 6111 6112 6113 6114 6115,https://en.wikipedia.org:443/wiki/Indiana:4024 4025 4026 4027,https://www.nytimes.com:443/section/todayspaper:185,https://cooking.nytimes.com:443/:1067,https://en.wikipedia.org:443/wiki/Cable_television:1660,https://www.nytimes.com:443/2024/05/03/books/cj-sansom-dead.html:336 337 338,https://en.wikipedia.org:443/wiki/Colonial_history_of_the_United_States:6188 6189 6190,https://en.wikipedia.org:443/wiki/Southern_United_States:5033,https://www.patriots.com:443/news/check-out-the-2016-patriots-color-rush-jerseys-270621:492 493,https://www.nytimes.com:443/section/world:547,https://en.wikipedia.org:443/wiki/Sports_teams_in_Virginia:448 449,https://en.wikipedia.org:443/wiki/Democratic_Party_(United_States):5459 5460 5461 5462 5463,https://www.nytimes.com:443/2024/05/04/us/politics/trump-biden-campaign-young-voters.html:352 353 354,https://millercenter.org:443/president/adams/essays/clay-1825-secretary-of-state:313 314 315 316 317 318 319 320,https://en.wikipedia.org:443/wiki/Immigrant_health_care_in_the_United_States:2528 2529 2530,https://en.wikipedia.org:443/wiki/Red_River_of_the_South:877 878,https://en.wikipedia.org:443/wiki/Fox_Sports_1:2154,https://www.nytimes.com:443/books/best-sellers/:859 860,https://www.nytimes.com:443/section/politics:198,https://en.wikipedia.org:443/wiki/United_States_Declaration_of_Independence:4720 4721 4722 4723 4724 4725 4726 4727 4728 4729 4730 4731 4732 4733 4734 4735 4736 4737 4738,https://en.wikipedia.org:443/wiki/Race_and_maternal_health_in_the_United_States:1650 1651,https://en.wikipedia.org:443/wiki/Antisemitism_in_the_United_States:1970 1971,https://en.wikipedia.org:443/wiki/Articles_of_Confederation:3374 3375 3376 3377 3378 3379 3380 3381 3382 3383 3384 3385 3386 3387 3388 3389 3390 3391 3392 3393 3394 3395 3396 3397 3398 3399 3400,https://en.wikipedia.org:443/wiki/Culture_of_the_United_States:4846,https://en.wikipedia.org:443/wiki/Cold_War:8492 8493 8494 8495 8496 8497 8498 8499 8500 8501 8502,https://en.wikipedia.org:443/wiki/Jack_Nicklaus:3590 3591 3592 3593 3594 3595 3596 3597 3598 3599 3600,https://en.wikipedia.org:443/wiki/American_Revolution:7086 7087 7088 7089 7090 7091 7092 7093 7094 7095 7096 7097 7098 7099 7100 7101 7102 7103 7104 7105 7106 7107 7108 7109 7110 7111,https://www.patriots.com:443/team/players-roster/:311,https://en.wikipedia.org:443/wiki/Perpetual_Union:1490 1491 1492 1493 1494 1495 1496 1497 1498 1499 1500 1501 1502 1503,https://en.wikipedia.org:443/wiki/Housing_in_the_United_States:623,https://en.wikipedia.org:443/wiki/Olympic_Games:5019 5020,https://en.wikipedia.org:443/wiki/New_England:4347 4348 4349 4350 4351 4352,https://www.nytimes.com:443/section/technology:227,https://en.wikipedia.org:443/wiki/Boswell:270 