herb herb-0 1036 https://www.nytimes.com:443/trending/:222,http://www.redsoxdiehard.com:80/players/unifnums.html:2042 2043 2044 2045 2046 2047,https://cooking.nytimes.com:443/recipes/1018626-eggs-benedict:819 820,https://www.nytimes.com:443/2023/11/21/dining/restaurant-review-bangkok-supper-club.html:475,https://en.wikipedia.org:443/wiki/Iroquois:6116 6117 6118,https://en.wikipedia.org:443/wiki/Boston_Red_Sox:4641 4642 4643 4644,https://www.nytimes.com:443/2023/11/21/dining/restaurant-review-bangkok-supper-club.html?rref=collection%2Fcollection%2Frestaurant-guide:475,https://cooking.nytimes.com:443/recipes/1022283-country-panzanella-with-watermelon-dressing:782 783,https://en.wikipedia.org:443/wiki/Jack_Nicklaus:3603,https://cooking.nytimes.com:443/topics/our-best-pasta-recipes:321,https://www.azcentral.com:443/story/sports/nfl/cardinals/2015/09/06/nfls-dynasties-decade/71605710/:364,https://en.wikipedia.org:443/wiki/Sports_in_Yemen:520,https://en.wikipedia.org:443/wiki/Fenway_Park:4523 4524,https://www.nytimes.com:443/reviews/dining:205 