herschel herschel-0 239 https://en.wikipedia.org:443/wiki/American_Revolution:7121,https://www.azcentral.com:443/story/sports/nfl/cardinals/2015/09/06/nfls-dynasties-decade/71605710/:365,https://en.wikipedia.org:443/wiki/Democratic_Party_(United_States):5467 5468 