hornung hornung-0 186 https://www.azcentral.com:443/story/sports/nfl/cardinals/2015/09/06/nfls-dynasties-decade/71605710/:373 374,https://en.wikipedia.org:443/wiki/2023_Big_Ten_Conference_football_season:2066 