immacul immacul-0 351 https://en.wikipedia.org:443/wiki/Americans:4085,https://www.azcentral.com:443/story/sports/nfl/cardinals/2015/09/06/nfls-dynasties-decade/71605710/:385,https://en.wikipedia.org:443/wiki/Henley_Royal_Regatta:1776,https://en.wikipedia.org:443/wiki/Baseball:4516,https://www.nytimes.com:443/interactive/2024/03/28/travel/things-to-do-mumbai.html:646 647 