incred incred-0 1473 https://www.tlc.com:443/inside-tlc/TLC-Casting:512 513 514,https://en.wikipedia.org:443/wiki/Democratic_Party_(United_States):5867,https://en.wikipedia.org:443/wiki/Architecture_of_the_United_States:3006,https://www.theguardian.com:443/us-news/2020/aug/25/qanon-conspiracy-theory-explained-trump-what-is:539,https://www.packers.com:443/community/shareholders:286,https://en.wikipedia.org:443/wiki/United_States_Polo_Association:677,https://www.azcentral.com:443/story/sports/nfl/cardinals/2015/09/06/nfls-dynasties-decade/71605710/:387,https://www.nytimes.com:443/2024/05/03/opinion/campus-protests-israel-gaza.html:964 965 966 967,https://theconversation.com:443/the-rise-and-rise-of-ultimate-fighting-and-why-boxing-is-now-so-passe-55910:293,https://en.wikipedia.org:443/wiki/History_of_the_United_States_(1945%E2%80%931964):4197,https://en.wikipedia.org:443/wiki/Jack_Nicklaus:3939,https://www.indycar.com:443/news/2022/02/02-22-internationaltv:233,https://en.wikipedia.org:443/wiki/Supreme_Court_of_the_United_States:7615,https://en.wikipedia.org:443/wiki/List_of_mountains_of_the_United_States:3387,https://en.wikipedia.org:443/wiki/Sports_in_India:7032,https://en.wikipedia.org:443/wiki/USA_Baseball:2921,https://en.wikipedia.org:443/wiki/National_Reconnaissance_Office:2008,https://en.wikipedia.org:443/wiki/Sports_in_Poland:1145,https://www.nytimes.com:443/2024/05/04/us/politics/trump-biden-campaign-young-voters.html:382,https://en.wikipedia.org:443/wiki/NBA:3078 