intercept intercept-0 2037 https://www.espn.com:443/college-football/boxscore/_/gameId/401520324:159 160 161,https://www.nytimes.com:443/video/us/100000007348445/breonna-taylor-death-cops.html:477,https://en.wikipedia.org:443/wiki/Terrorism_in_the_United_States:5657 5658,https://en.wikipedia.org:443/wiki/American_Revolution:7949,https://en.wikipedia.org:443/wiki/Cold_War:9357 9358,https://en.wikipedia.org:443/wiki/Ice_hockey:3652,https://www.espn.com:443/college-football/boxscore/_/gameId/401520265:136 137 138 139,https://www.espn.com:443/college-football/boxscore/_/gameId/401520155:159 160,https://www.nytimes.com:443/2024/05/04/opinion/alexandria-ocasio-cortez.html:613,https://www.espn.com:443/college-football/boxscore/_/gameId/401520200:152 153,https://en.wikipedia.org:443/wiki/New_England_Patriots:5805 5806 5807 5808 5809 5810 5811 5812 5813 5814 5815 5816,https://en.wikipedia.org:443/wiki/Supreme_Court_of_the_United_States:7766,https://en.wikipedia.org:443/wiki/Fenway_Park:4831,https://www.espn.com:443/college-football/boxscore/_/gameId/401520417:156 157 158,https://en.wikipedia.org:443/wiki/Volleyball:2339,https://bolavip.com:443/en/info/privacy:362 363,https://www.espn.com:443/college-football/boxscore/_/gameId/401520383:156 157,https://www.nytimes.com:443/spotlight/visual-investigations:767 768,https://en.wikipedia.org:443/wiki/National_Reconnaissance_Office:2159 2160,https://www.commanders.com:443/news/commanders-agree-to-trade-de-montez-sweat-to-chicago-bears:294,https://en.wikipedia.org:443/wiki/Immigrant_health_care_in_the_United_States:3152,https://en.wikipedia.org:443/wiki/The_Washington_Post:2827 2828,https://en.wikipedia.org:443/wiki/Powers_of_the_president_of_the_United_States:1498,https://www.azcentral.com:443/story/sports/nfl/cardinals/2015/09/06/nfls-dynasties-decade/71605710/:389 390,https://en.wikipedia.org:443/wiki/U.S._Immigration_and_Customs_Enforcement:3331 3332,https://en.wikipedia.org:443/wiki/Drug_Enforcement_Administration:3338 3339,https://en.wikipedia.org:443/wiki/National_Football_League:3368 3369 