irvin irvin-0 645 http://www.redsoxdiehard.com:80/players/unifnums.html:2182,https://en.wikipedia.org:443/wiki/Boston:6800,https://en.wikipedia.org:443/wiki/Baseball:4754,https://www.nytimes.com:443/section/books/review?page=7:782 783,https://www.azcentral.com:443/story/sports/nfl/cardinals/2015/09/06/nfls-dynasties-decade/71605710/:392 393,https://en.wikipedia.org:443/wiki/History_of_the_United_States_(1849%E2%80%931865):2733,https://www.nytimes.com:443/spotlight/nytimesineducation:635 636,https://www.nytimes.com:443/section/books/review:261 262,https://en.wikipedia.org:443/wiki/Fox_Sports_1:2330,https://en.wikipedia.org:443/wiki/American_Revolution:8058 