jack jack-0 6683 https://www.nytimes.com:443/live/2024/05/03/world/israel-gaza-war-hamas:956,https://www.nytimes.com:443/2024/05/03/climate/nasa-satellites-data.html:454,https://en.wikipedia.org:443/wiki/MLS:4334 4335 4336 4337,https://en.wikipedia.org:443/wiki/Drug_Enforcement_Administration:3434,https://www.nytimes.com:443/2024/05/04/business/energy-environment/tesla-electric-vehicles-supercharger.html:556 557 558,https://en.wikipedia.org:443/wiki/National_Boxing_Association:1523,https://cooking.nytimes.com:443/recipes/1016295-mint-julep:740,https://cooking.nytimes.com:443/recipes/1019333-millionaires-shortbread:816,https://en.wikipedia.org:443/wiki/Ice_hockey:3753,https://www.businessinsider.com:443/s:330 331,https://en.wikipedia.org:443/wiki/NBA:3231 3232,https://en.wikipedia.org:443/wiki/List_of_current_United_States_district_judges:5083 5084,https://en.wikipedia.org:443/wiki/Education_in_the_United_States:5427,https://en.wikipedia.org:443/wiki/List_of_mountains_of_the_United_States:3531 3532 3533 3534,https://en.wikipedia.org:443/wiki/Boston:6885,https://www.espn.com:443/college-football/boxscore/_/gameId/401520200:157 158,https://en.wikipedia.org:443/wiki/Soccer_in_the_United_States:3983,https://www.azcentral.com:443/story/sports/nfl/cardinals/2015/09/06/nfls-dynasties-decade/71605710/:395 396,https://www.independent.co.uk:443/tv/travel-smart:586 587,https://en.wikipedia.org:443/wiki/History_of_the_United_States_(1945%E2%80%931964):4402 4403 4404,https://www.nytimes.com:443/section/technology:250 251,https://en.wikipedia.org:443/wiki/Mayoralty_in_the_United_States:381,https://en.wikipedia.org:443/wiki/USA_Baseball:3057,https://en.wikipedia.org:443/wiki/Sports_in_Kentucky:2063,https://en.wikipedia.org:443/wiki/Americans:4432,http://www.redsoxdiehard.com:80/players/unifnums.html:2190 2191 2192 2193 2194 2195 2196 2197 2198 2199 2200 2201 2202 2203 2204 2205 2206 2207 2208 2209 2210 2211,https://en.wikipedia.org:443/wiki/United_States_Polo_Association:720 721,https://en.wikipedia.org:443/wiki/Iroquois:7506,https://en.wikipedia.org:443/wiki/Southern_United_States:5738,https://en.wikipedia.org:443/wiki/United_States_Olympic_%26_Paralympic_Committee:1777,https://www.telegraph.co.uk:443/news/worldnews/asia/afghanistan/8693247/Secret-peace-talks-between-US-and-Taliban-collapse-over-leaks.html:322,https://en.wikipedia.org:443/wiki/Colonial_history_of_the_United_States:7100 7101 7102 7103 7104,https://www.nytimes.com:443/live/2024/05/04/us/biden-trump-campaign:306,https://en.wikipedia.org:443/wiki/Sports_in_Washington:2177,https://en.wikipedia.org:443/wiki/Constitution_of_the_United_States:6679 6680 6681,https://en.wikipedia.org:443/wiki/Fenway_Park:4889 4890 4891 4892 4898,https://en.wikipedia.org:443/wiki/New_England_Patriots:5885 5888,https://www.cnn.com:443/2020/08/24/politics/muslim-ice-detainees-pork-meals/index.html:476,https://en.wikipedia.org:443/wiki/Professional_boxer:1031 1032 1033 1034 1035 1036 1037 1038,https://en.wikipedia.org:443/wiki/Cold_War:9935,https://en.wikipedia.org:443/wiki/Cable_television:1845 1846,https://en.wikipedia.org:443/wiki/Major_Arena_Soccer_League:1093,https://en.wikipedia.org:443/wiki/Antisemitism_in_the_United_States:2307,https://www.nytimes.com:443/section/science?page=9:1189,https://www.nytimes.com:443/section/business:258,https://www.nytimes.com:443/2024/04/18/t-magazine/chalet-des-iles-paris-restaurant.html:645 646,https://cooking.nytimes.com:443/recipes/1023559-ina-gartens-bourbon-chocolate-pecan-pie:844 845,https://en.wikipedia.org:443/wiki/Vietnam_War:8670,https://en.wikipedia.org:443/wiki/United_States_men%27s_national_soccer_team:4033 4034 4035 4036,https://en.wikipedia.org:443/wiki/West_Coast_of_the_United_States:1559,https://en.wikipedia.org:443/wiki/2023_Big_Ten_Conference_football_season:2342 2343 2344 2345 2346 2347 2348 2349,https://www.nytimes.com:443/2024/05/03/world/europe/campus-protests-rorschach-test.html:598,https://en.wikipedia.org:443/wiki/Jack_Nicklaus:4043 4044 4045 4046 4047 4048 4049 4050 4051 4052 4053 4054 4055 4056 4057 4058 4059 4060 4061 4062 4063 4064 4065 4066 4067 4068 4069 4070 4071 4072 4073 4074 4075 4076 4077 4078 4079 4080 4081 4082 4083 4084 4085 4086 4087 4088 4089 4090 4091 4092 4093 4094 4095 4096 4097 4098 4099 4100 4101 4102 4103 4104 4105 4106 4107 4108 4109 4110 4111 4112 4113 4114 4115 4116 4117 4118 4119 4120 4121 4122 4123 4124 4125 4126 4127 4128 4129 4130 4131 4132 4133 4134 4135 4136 4137 4138 4139 4140 4141 4142 4143 4144 4145 4146 4147 4148 4149 4150 4151 4152 4153 4154 4155 4156 4157 4158 4159 4160 4161 4162 4163 4164 4165 4166 4167 4168 4169 4170 4171,https://en.wikipedia.org:443/wiki/Sports_in_the_United_States:2281 2282 2283,https://www.nytimes.com:443/section/science:369,https://en.wikipedia.org:443/wiki/Sports_in_Ghana:1404 1405 1406 1407 1408,https://en.wikipedia.org:443/wiki/Articles_of_Confederation:3834 3835 3836,https://www.nytimes.com:443/spotlight/visual-investigations:841 842,https://en.wikipedia.org:443/wiki/Supreme_Court_of_the_United_States:7960,https://en.wikipedia.org:443/wiki/United_States_Declaration_of_Independence:5607,https://en.wikipedia.org:443/wiki/The_Washington_Post:2912 2913 2914,https://en.wikipedia.org:443/wiki/Sports_teams_in_Virginia:509,https://en.wikipedia.org:443/wiki/Sports_in_Venezuela:1176,https://en.wikipedia.org:443/wiki/Race_and_maternal_health_in_the_United_States:1969,https://en.wikipedia.org:443/wiki/New_England:5042 5043,https://en.wikipedia.org:443/wiki/History_of_the_United_States_(2008%E2%80%93present):5533,https://www.nytimes.com:443/books/best-sellers/mass-market-monthly/:347,https://en.wikipedia.org:443/wiki/National_Football_League:3417 3418,https://en.wikipedia.org:443/wiki/American_Revolution:8267 8268 8269 8270 8271 8272 8273 8274,https://en.wikipedia.org:443/wiki/College_basketball:3163 3164 3165 3166 3167,https://en.wikipedia.org:443/wiki/Boston_Red_Sox:5121 5122 5123 5124 5125 5126 5127 5128 5139 5140,https://www.independent.co.uk:443/sport/us-sport/nba/draft-2020-what-time-start-uk-b1725070.html:373,https://www.nytimes.com:443/spotlight/podcasts?page=6:1419 1420 1421 1422,https://en.wikipedia.org:443/wiki/Baseball:4820 4821,https://www.nytimes.com:443/spotlight/podcasts:957 958,https://www.theguardian.com:443/sport/2017/aug/19/will-mcgregor-v-mayweather-save-american-boxing-or-bury-it?CMP=share_btn_link:786,https://www.nytimes.com:443/live/2024/01/19/world/israel-hamas-news/a-un-official-says-israeli-treatment-of-detainees-may-amount-to-torture?smid=url-share:1837 1838,https://en.wikipedia.org:443/wiki/Literacy_in_the_United_States:2835 2836,https://en.wikipedia.org:443/wiki/Spanish%E2%80%93American_War:7344 7345 7346 7347 