jerri jerri-0 3073 https://www.azcentral.com:443/story/sports/nfl/cardinals/2015/09/06/nfls-dynasties-decade/71605710/:398 399 400,https://www.nytimes.com:443/section/arts/television:187,https://en.wikipedia.org:443/wiki/Constitution_of_the_United_States:6802,https://www.nytimes.com:443/section/obituaries:345 346,https://www.nytimes.com:443/section/arts/television?page=3:345 346,https://www.nytimes.com:443/trending/:262,https://en.wikipedia.org:443/wiki/Culture_of_the_United_States:5803 5804,https://en.wikipedia.org:443/wiki/Jack_Nicklaus:4261 4262 4263 4264 4265 4266 4267 4268 4269 4270 4271 4272,https://en.wikipedia.org:443/wiki/Democratic_Party_(United_States):6348,https://en.wikipedia.org:443/wiki/Iroquois:7558,https://www.nytimes.com:443/ca/:335,https://en.wikipedia.org:443/wiki/Race_and_maternal_health_in_the_United_States:2009,https://www.nytimes.com:443/news-event/israel-hamas-gaza:378,https://en.wikipedia.org:443/wiki/History_of_the_United_States_(1945%E2%80%931964):4463,https://en.wikipedia.org:443/wiki/Boston:6967,https://www.nytimes.com:443/section/arts/music:202,https://en.wikipedia.org:443/wiki/Baseball:4898,https://www.nytimes.com:443/section/politics:224 225,https://www.nytimes.com:443/2024/05/02/business/horse-racing-deaths-kentucky-derby.html:725,https://en.wikipedia.org:443/wiki/Fenway_Park:4939,https://en.wikipedia.org:443/wiki/Spanish%E2%80%93American_War:7427,https://en.wikipedia.org:443/wiki/U.S._Immigration_and_Customs_Enforcement:3481 3482,https://en.wikipedia.org:443/wiki/The_Washington_Post:3012,https://en.wikipedia.org:443/wiki/Portal:Current_events:1410,http://www.redsoxdiehard.com:80/players/unifnums.html:2309 2310 2311 2312 2313 2314 2315 2316 2317 2318 2319 2320,https://en.wikipedia.org:443/wiki/New_England_Patriots:6063,https://www.nytimes.com:443/international/:333,https://en.wikipedia.org:443/wiki/Boston_Red_Sox:5211 5212 5213 5214,https://www.nytimes.com:443/:402,https://en.wikipedia.org:443/wiki/Supreme_Court_of_the_United_States:8085,https://www.nytimes.com:443/section/education:325,https://en.wikipedia.org:443/wiki/Terrorism_in_the_United_States:6002,https://en.wikipedia.org:443/wiki/United_States_Olympic_%26_Paralympic_Committee:1790,https://commons.wikimedia.org:443/wiki/Category:Sports_in_the_United_States:362,https://en.wikipedia.org:443/wiki/American_League:1019,https://en.wikipedia.org:443/wiki/USA_Baseball:3143 3144,https://en.wikipedia.org:443/wiki/History_of_the_United_States_(2008%E2%80%93present):5636,https://www.nytimes.com:443/section/us:230,https://www.nytimes.com:443/section/food:259,https://en.wikipedia.org:443/wiki/Sports_in_Ghana:1421,https://en.wikipedia.org:443/wiki/NBA:3283 3284 3285,https://en.wikipedia.org:443/wiki/Cold_War:10044,https://en.wikipedia.org:443/wiki/Environmental_issues_in_the_United_States:1993,https://en.wikipedia.org:443/wiki/Prescription_drug_prices_in_the_United_States:3286 3287 3288,https://en.wikipedia.org:443/wiki/United_States_men%27s_national_soccer_team:4112,https://en.wikipedia.org:443/wiki/List_of_current_United_States_district_judges:5226 5227 5228 