jimmi jimmi-0 2914 https://en.wikipedia.org:443/wiki/Fox_Sports_1:2369,https://en.wikipedia.org:443/wiki/Portal:Current_events:1416,https://en.wikipedia.org:443/wiki/Associate_Justice_of_the_Supreme_Court_of_the_United_States:1391,https://www.theguardian.com:443/sport/2017/aug/19/will-mcgregor-v-mayweather-save-american-boxing-or-bury-it?CMP=share_btn_link:791 792 793,https://en.wikipedia.org:443/wiki/Drug_Enforcement_Administration:3457,https://en.wikipedia.org:443/wiki/Vietnam_War:8793,https://www.nytimes.com:443/section/obituaries:348,https://millercenter.org:443/president/adams/essays/clay-1825-secretary-of-state:377 378,https://en.wikipedia.org:443/wiki/Sports_in_Maryland:2720,https://en.wikipedia.org:443/wiki/Outline_of_the_history_of_the_United_States:2626 2627,https://en.wikipedia.org:443/wiki/Sports_in_Samoa:769 770 771 772,https://en.wikipedia.org:443/wiki/Culture_of_the_United_States:5823,http://www.redsoxdiehard.com:80/players/unifnums.html:2366 2367 2368 2369 2370,https://en.wikipedia.org:443/wiki/Southern_United_States:5812 5813 5814,https://en.wikipedia.org:443/wiki/New_England_Patriots:6156 6157,https://www.nytimes.com:443/section/arts/television:189,https://www.nytimes.com:443/section/arts/television?page=3:349 350,https://en.wikipedia.org:443/wiki/Jack_Nicklaus:4300 4301 4302 4303 4304 4305,https://en.wikipedia.org:443/wiki/USA_Baseball:3156,https://en.wikipedia.org:443/wiki/Cold_War:10056 10057 10058,https://en.wikipedia.org:443/wiki/Boston_Red_Sox:5247 5248 5249 5250 5251 5252 5253 5254 5255 5256 5257 5258 5259 5260 5261 5262 5263 5264 5265,https://en.wikipedia.org:443/wiki/Terrorism_in_the_United_States:6059 6060 6061 6062,https://en.wikipedia.org:443/wiki/National_monument_(United_States):717 718,https://en.wikipedia.org:443/wiki/History_of_the_United_States_(1945%E2%80%931964):4474,https://www.usatoday.com:443/story/sports/mlb/2013/08/11/fox-sports-1-versus-espn/2641247/:474,https://en.wikipedia.org:443/wiki/MLS:4467,https://www.azcentral.com:443/story/sports/nfl/cardinals/2015/09/06/nfls-dynasties-decade/71605710/:405,https://en.wikipedia.org:443/wiki/Democratic_Party_(United_States):6360 6361 6362 6363 6364 6365 6366,https://www.cnn.com:443/2020/09/26/politics/supreme-court-conservative/index.html:724,https://en.wikipedia.org:443/wiki/Powers_of_the_president_of_the_United_States:1577,https://en.wikipedia.org:443/wiki/United_States_men%27s_national_soccer_team:4117 4118,https://en.wikipedia.org:443/wiki/Fenway_Park:4965 4966 4967,https://en.wikipedia.org:443/wiki/Red_River_of_the_South:964,https://en.wikipedia.org:443/wiki/The_Washington_Post:3021 3022 3023 3024 3025 3026,https://www.nytimes.com:443/2024/05/03/arts/television/jimmy-kimmel-donald-trump-trial.html:186 187 188 189 190 191 192 193 194 195 196,https://en.wikipedia.org:443/wiki/Mayoralty_in_the_United_States:386 387 388 389,https://en.wikipedia.org:443/wiki/Supreme_Court_of_the_United_States:8101 