jone jone-0 6215 https://en.wikipedia.org:443/wiki/Major_Arena_Soccer_League:1120,https://en.wikipedia.org:443/wiki/New_England_Patriots:6227 6228 6229 6230 6231 6232 6233 6234 6235 6236 6237 6238 6239 6240,https://en.wikipedia.org:443/wiki/National_Football_League:3538,https://en.wikipedia.org:443/wiki/Southern_United_States:5868 5869,https://en.wikipedia.org:443/wiki/History_of_the_United_States_(1945%E2%80%931964):4547,https://en.wikipedia.org:443/wiki/Basketball_in_the_United_States:548,https://www.nytimes.com:443/section/magazine?page=8:729 730 731 732 733 734 735 736 737 738,https://www.nytimes.com:443/2024/04/24/podcasts/laufey-gen-zs-jazz-icon-sings-for-anxious-generation.html:817 818,https://en.wikipedia.org:443/wiki/Vietnam_War:8893,https://www.theguardian.com:443/type/video+tone/comment:341 342 343 344 345 346 347 348 349 350 351 352 353,https://www.azcentral.com:443/story/sports/nfl/cardinals/2015/09/06/nfls-dynasties-decade/71605710/:413,http://www.redsoxdiehard.com:80/players/unifnums.html:2540 2541 2542 2543 2544 2545 2546 2547,https://en.wikipedia.org:443/wiki/Greenhouse_gas_emissions_by_the_United_States:2279,https://en.wikipedia.org:443/wiki/The_Washington_Post:3077 3078 3079 3080,https://en.wikipedia.org:443/wiki/2023_Big_Ten_Conference_football_season:2486 2487 2488 2489 2490 2491 2492 2493 2494,https://www.nytimes.com:443/2024/05/04/style/nonalcoholic-drinks-kids-mocktail.html:363 364 365 366,https://en.wikipedia.org:443/wiki/Boston_Red_Sox:5371 5372 5373 5374,https://en.wikipedia.org:443/wiki/Sports_in_India:8494,https://en.wikipedia.org:443/wiki/United_States_men%27s_national_soccer_team:4146 4147 4148 4149 4150 4151 4152 4153 4154 4155 4156 4157 4158 4159 4160 4161 4162 4163 4164 4165 4166 4167,https://en.wikipedia.org:443/wiki/Iroquois:7690 7691,https://en.wikipedia.org:443/wiki/Cold_War:10106 10107 10108 10109 10110,https://www.nytimes.com:443/spotlight/graphics?page=10:1160 1161,https://en.wikipedia.org:443/wiki/Baseball:4941 4942 4943 4944,https://en.wikipedia.org:443/wiki/MLS:4502 4503,https://www.patriots.com:443/team/players-roster/:405 406,https://en.wikipedia.org:443/wiki/Great_Recession_in_the_United_States:2740 2741,https://www.nytimes.com:443/section/technology:256,https://www.nytimes.com:443/section/jobs:162,https://en.wikipedia.org:443/wiki/USA_Baseball:3180 3181 3182,https://en.wikipedia.org:443/wiki/Education_in_the_United_States:5514,https://en.wikipedia.org:443/wiki/Fox_Sports_1:2385 2386,https://en.wikipedia.org:443/wiki/Powers_of_the_president_of_the_United_States:1598,https://en.wikipedia.org:443/wiki/Articles_of_Confederation:4000,https://en.wikipedia.org:443/wiki/Boston:7027,https://en.wikipedia.org:443/wiki/Cable_television:1856,https://commons.wikimedia.org:443/wiki/Category:Sports_in_the_United_States:365,https://www.nytimes.com:443/section/arts/dance:224 225,https://en.wikipedia.org:443/wiki/Carlos_Bocanegra:1419 1420 1421,https://en.wikipedia.org:443/wiki/Jack_Nicklaus:4381 4382 4383 4384 4385 4386 4387 4388 4389 4390 4391 4392 4393 4394 4395 4396 4397 4398 4399 4400 4401 4402 4403 4404 4405 4406 4407 4408 4409,https://en.wikipedia.org:443/wiki/United_States_Declaration_of_Independence:5898,https://www.nytimes.com:443/section/fashion/weddings:480,https://en.wikipedia.org:443/wiki/Fenway_Park:5014 5015 5016 5017,https://en.wikipedia.org:443/wiki/Literacy_in_the_United_States:2878,https://www.nytimes.com:443/spotlight/podcasts:1018 1019 1020 1021 1022,https://en.wikipedia.org:443/wiki/Sports_in_Washington:2201,https://en.wikipedia.org:443/wiki/New_England:5129,https://en.wikipedia.org:443/wiki/Louise_Suggs:572 573,https://www.nytimes.com:443/spotlight/graphics:291,https://www.nytimes.com:443/spotlight/nytimesineducation:653 654,https://en.wikipedia.org:443/wiki/List_of_current_United_States_district_judges:5335 5336 5337 5338 5339 5340 5341 5342 5343 5344,https://en.wikipedia.org:443/wiki/Culture_of_the_United_States:5837 5838 5839,https://en.wikipedia.org:443/wiki/WNBA%27s_Top_15_Team:367,https://www.espn.com:443/college-football/boxscore/_/gameId/401520200:167 168 169 170 171,https://en.wikipedia.org:443/wiki/Maternal_mortality_in_the_United_States:2290 2291,https://www.nytimes.com:443/news-event/weather-climate:235 236 237 238,https://en.wikipedia.org:443/wiki/Democratic_Party_(United_States):6485 6486 6487 6488 6489,https://www.nytimes.com:443/spotlight/podcasts?page=6:1529 1530 1531 1532 1533,https://en.wikipedia.org:443/wiki/History_of_the_United_States_debt_ceiling:1446,https://en.wikipedia.org:443/wiki/History_of_the_United_States_(2008%E2%80%93present):5721 5722 5723,https://en.wikipedia.org:443/wiki/Race_and_maternal_health_in_the_United_States:2025 2026,https://www.nytimes.com:443/section/t-magazine:514,https://en.wikipedia.org:443/wiki/American_Revolution:8529,https://en.wikipedia.org:443/wiki/Agriculture_in_the_United_States:2994,https://en.wikipedia.org:443/wiki/List_of_mountains_of_the_United_States:3598 3599,https://www.pbs.org:443/wgbh/americanexperience/features/klansville-faq/:562 563 564 565 566 567 568 569 570 571,https://en.wikipedia.org:443/wiki/Colonial_history_of_the_United_States:7225,https://www.patriots.com:443/news/check-out-the-2016-patriots-color-rush-jerseys-270621:589 590 591 592 593,https://en.wikipedia.org:443/wiki/IndyCar_Series:3705,https://en.wikipedia.org:443/wiki/Speaker_of_the_United_States_House_of_Representatives:2476 2477,https://en.wikipedia.org:443/wiki/History_of_the_United_States_(1849%E2%80%931865):2891 2892,https://en.wikipedia.org:443/wiki/Americans:4553 4554 4555 4556 4557,https://en.wikipedia.org:443/wiki/Terrorism_in_the_United_States:6094 6095,https://www.nytimes.com:443/section/fashion:615,https://www.nytimes.com:443/section/magazine:209 210,https://en.wikipedia.org:443/wiki/Sports_in_Belize:602,https://www.nytimes.com:443/section/science:374,https://www.nytimes.com:443/section/science?page=9:1208,https://www.nytimes.com:443/section/fashion?page=9:1295 1296,https://en.wikipedia.org:443/wiki/Supreme_Court_of_the_United_States:8204,https://www.nytimes.com:443/2024/05/03/opinion/campus-protests-israel-gaza.html:1056 1057,https://en.wikipedia.org:443/wiki/United_States_at_the_FIFA_Confederations_Cup:455 456 457 458 