junior junior-0 4644 https://en.wikipedia.org:443/wiki/USA_Cycling:716 717 718,https://en.wikipedia.org:443/wiki/Olympic_Games:6154 6155,https://en.wikipedia.org:443/wiki/National_League_(baseball):1725,https://en.wikipedia.org:443/wiki/Henley_Royal_Regatta:1908 1909 1910 1911 1912,https://en.wikipedia.org:443/wiki/College_basketball:3242 3243 3244 3245 3246 3247 3248 3249 3250 3251 3252 3253 3254 3255 3256 3257,https://en.wikipedia.org:443/wiki/U.S._Squash:395 396 397 398 399 400 401 402 403 404 405 406 407 408 409,https://en.wikipedia.org:443/wiki/Volleyball:2471 2472 2473,https://en.wikipedia.org:443/wiki/History_of_the_United_States_(1945%E2%80%931964):4588,https://en.wikipedia.org:443/wiki/History_of_the_United_States_(2008%E2%80%93present):5840,https://www.azcentral.com:443/story/sports/nfl/cardinals/2015/09/06/nfls-dynasties-decade/71605710/:416,https://en.wikipedia.org:443/wiki/Francis_Olympic_Field:1033,https://en.wikipedia.org:443/wiki/New_England:5188,https://en.wikipedia.org:443/wiki/Education_in_the_United_States:5605 5606 5607 5608 5609 5610 5611 5612 5613 5614 5615 5616 5617 5618 5619,https://www.espn.com:443/college-football/boxscore/_/gameId/401520155:171 172,https://www.nytimes.com:443/video/last-word:608,https://en.wikipedia.org:443/wiki/Fox_Sports_1:2425 2426,https://en.wikipedia.org:443/wiki/United_States_Public_Health_Service_Commissioned_Corps:1522 1523,https://en.wikipedia.org:443/wiki/Culture_of_the_United_States:5929,https://www.theguardian.com:443/sport/nhl:338 339 340,https://en.wikipedia.org:443/wiki/Sports_in_Belize:606 607,https://en.wikipedia.org:443/wiki/United_States_Aquatic_Sports:461 462 463,https://en.wikipedia.org:443/wiki/Ice_hockey:3837 3838 3839 3840 3841 3842 3843 3844 3845 3846 3847 3848 3849 3850 3851 3852 3853 3854 3855 3856 3857 3858 3859 3860 3861,https://en.wikipedia.org:443/wiki/Soccer_in_the_United_States:4200,https://en.wikipedia.org:443/wiki/Jack_Nicklaus:4463 4464 4465,https://en.wikipedia.org:443/wiki/IndyCar_Series:3735 3736 3737 3738,https://en.wikipedia.org:443/wiki/Sports_in_Samoa:785,https://en.wikipedia.org:443/wiki/Beach_volleyball:2461 2462 2463 2464,https://www.nytimes.com:443/column/out-there:160,https://en.wikipedia.org:443/wiki/Sports_in_Uzbekistan:430 431,https://www.nytimes.com:443/section/fashion/weddings:486,https://en.wikipedia.org:443/wiki/Inter_Miami:3688 3689,https://commons.wikimedia.org:443/wiki/Category:Sports_in_Maryland:316,https://en.wikipedia.org:443/wiki/Sports_in_American_Samoa:628,https://en.wikipedia.org:443/wiki/Sports_in_Ghana:1460,https://en.wikipedia.org:443/wiki/Professional_Disc_Golf_Association:700,https://en.wikipedia.org:443/wiki/U.S._Biathlon_Association:160,https://en.wikipedia.org:443/wiki/Summer_Olympic_Games:3020 3021,https://en.wikipedia.org:443/wiki/United_States_Olympic_%26_Paralympic_Committee:1837,https://en.wikipedia.org:443/wiki/National_Boxing_Association:1607 1608,http://www.nationalletter.org:80/:33,https://en.wikipedia.org:443/wiki/Sports_in_Poland:1257 1258 1259 1260 1261,https://en.wikipedia.org:443/wiki/American_League:1041,https://en.wikipedia.org:443/wiki/Sports_in_India:8667 8668 8669 8670 8671 8672 8673 8674 8675 8676 8677 8678 8679 8680 8681,https://en.wikipedia.org:443/wiki/Boston:7150,https://en.wikipedia.org:443/wiki/Sports_in_Armenia:1363,https://en.wikipedia.org:443/wiki/College_athletics_in_the_United_States:2646 2647 2648,https://en.wikipedia.org:443/wiki/American_exceptionalism:3456,https://en.wikipedia.org:443/wiki/Fenway_Park:5133,https://en.wikipedia.org:443/wiki/Speaker_of_the_United_States_House_of_Representatives:2513,https://en.wikipedia.org:443/wiki/2023_Big_Ten_Conference_football_season:2527 2528 2529 2530 2531 2532,https://en.wikipedia.org:443/wiki/Gymnastics_in_the_United_States:1084 1085 1086 1087 1088 1089 1090 1091 1092 1093 1094 1095 1096 1097 1098 1099 1100,https://www.patriots.com:443/cheerleaders/pat-patriot:369 370,https://en.wikipedia.org:443/wiki/Supreme_Court_of_the_United_States:8552 8553 8554 8555 8556,https://www.nytimes.com:443/2024/04/12/fashion/weddings/elena-bauer-joshua-fagel-wedding.html:388,https://en.wikipedia.org:443/wiki/USA_Baseball:3197 3198 3199 3200,https://en.wikipedia.org:443/wiki/Vietnam_War:9075,https://en.wikipedia.org:443/wiki/National_Football_League:3589 3590 3591,https://en.wikipedia.org:443/wiki/USA_Cricket:1054,https://en.wikipedia.org:443/wiki/Sports_in_Estonia:1026 1027 1028 1029,https://en.wikipedia.org:443/wiki/Sports_in_Cuba:704 705 706,https://en.wikipedia.org:443/wiki/New_England_Patriots:6334,https://en.wikipedia.org:443/wiki/Sports_in_Finland:1742 1743 1744 1745 1746 1747 1748 1749 1750 1751 1752 