kick kick-0 3756 https://en.wikipedia.org:443/wiki/Democratic_Party_(United_States):6769,https://en.wikipedia.org:443/wiki/USA_Baseball:3222,https://en.wikipedia.org:443/wiki/Olympic_Games:6197,https://en.wikipedia.org:443/wiki/National_Football_League:3612,https://theconversation.com:443/the-rise-and-rise-of-ultimate-fighting-and-why-boxing-is-now-so-passe-55910:324,https://www.usatoday.com:443/story/sports/mlb/2013/08/11/fox-sports-1-versus-espn/2641247/:482,https://www.forbes.com:443/sites/zachslaton/2012/10/15/how-the-mls-playoff-format-punishes-ambitious-teams/:446,https://www.espn.com:443/college-football/boxscore/_/gameId/401520200:175 176 177 178,https://en.wikipedia.org:443/wiki/Major_Arena_Soccer_League:1167 1168,https://www.espn.com:443/college-football/boxscore/_/gameId/401520383:177 178 179 180,https://en.wikipedia.org:443/wiki/Sports_in_the_United_States:2383,https://en.wikipedia.org:443/wiki/MLS:4670 4671 4673 4674 4675,https://en.wikipedia.org:443/wiki/Volleyball:2487,https://en.wikipedia.org:443/wiki/Sports_in_France:1361 1363 1364 1365 1366,https://en.wikipedia.org:443/wiki/History_of_the_United_States_(1945%E2%80%931964):4675 4676,https://en.wikipedia.org:443/wiki/Jack_Nicklaus:4516,https://www.nytimes.com:443/interactive/2024/05/03/us/ucla-protests-encampment-violence.html:559,https://www.azcentral.com:443/story/sports/nfl/cardinals/2015/09/06/nfls-dynasties-decade/71605710/:419 420,https://www.espn.com:443/college-football/boxscore/_/gameId/401520417:183 184 185 186,https://www.espn.com:443/college-football/boxscore/_/gameId/401520155:175 176 177 178,https://www.nytimes.com:443/2024/04/29/realestate/renters-astoria-queens.html:410,https://en.wikipedia.org:443/wiki/MLB_Network:2208,https://en.wikipedia.org:443/wiki/Sports_in_Namibia:525,https://www.nytimes.com:443/section/health?page=7:964,https://en.wikipedia.org:443/wiki/Fox_Sports_1:2460,https://www.nytimes.com:443/live/2024/05/04/us/college-campus-protests:1575,https://en.wikipedia.org:443/wiki/Professional_boxer:1131,https://www.espn.com:443/college-football/boxscore/_/gameId/401520265:168 169 170 171 172 173 174,https://www.theguardian.com:443/sport/2004/jul/27/cricket.comment:451 452,https://en.wikipedia.org:443/wiki/Inter_Miami:3720 3721 3722 3723 3725,https://www.sportsbusinessjournal.com:443/Archive/Sections/International.aspx:523,https://www.nytimes.com:443/2024/05/03/books/cj-sansom-dead.html:394 395 396 397,https://www.nytimes.com:443/section/health:363,https://www.nytimes.com:443/2024/04/24/podcasts/laufey-gen-zs-jazz-icon-sings-for-anxious-generation.html:827,https://en.wikipedia.org:443/wiki/Baseball:5024,https://en.wikipedia.org:443/wiki/New_England_Patriots:6389 6390 6407,https://www.nytimes.com:443/2009/01/05/opinion/05krugman.html:261,https://en.wikipedia.org:443/wiki/College_basketball:3273 3274,https://en.wikipedia.org:443/wiki/Terrorism_in_the_United_States:6371,https://www.sportsbusinessjournal.com:443/Journal/Issues/2024/03/04.aspx:464,https://www.saturdaydownsouth.com:443/sports/ranking-top-25-rivalries-college-sports-2023/:925,https://en.wikipedia.org:443/wiki/Sports_in_India:8969 8970,https://en.wikipedia.org:443/wiki/Ice_hockey:3902,https://en.wikipedia.org:443/wiki/Literacy_in_the_United_States:2941,https://www.nytimes.com:443/2024/05/03/opinion/campus-protests-israel-gaza.html:1072,https://www.espn.com:443/college-football/boxscore/_/gameId/401520324:187 188 189 190,https://www.sbnation.com:443/2014/10/5/6916597/nba-new-tv-deal-espn-turner-24-billion:334 335,https://www.independent.co.uk:443/tv/travel-smart:605,https://en.wikipedia.org:443/wiki/Soccer_in_the_United_States:4235 4236 4239,https://en.wikipedia.org:443/wiki/American_Revolution:8685,https://en.wikipedia.org:443/wiki/Sports_in_South_Korea:1019 