lambert lambert-0 450 https://en.wikipedia.org:443/wiki/2023_Big_Ten_Conference_football_season:2652 2653,https://www.espn.com:443/college-football/boxscore/_/gameId/401520265:177,https://www.nytimes.com:443/section/arts/music:225,https://www.azcentral.com:443/story/sports/nfl/cardinals/2015/09/06/nfls-dynasties-decade/71605710/:422,https://www.nytimes.com:443/spotlight/pop-culture:94,https://en.wikipedia.org:443/wiki/Race_and_maternal_health_in_the_United_States:2136 