lambeau lambeau-0 392 https://en.wikipedia.org:443/wiki/New_England_Patriots:6478,https://en.wikipedia.org:443/wiki/National_Football_League:3644,https://www.azcentral.com:443/story/sports/nfl/cardinals/2015/09/06/nfls-dynasties-decade/71605710/:421,https://www.packers.com:443/community/shareholders:303 304 305,https://en.wikipedia.org:443/wiki/Major_professional_sports_teams_of_the_United_States_and_Canada:904 