layn layn-0 223 https://en.wikipedia.org:443/wiki/Cold_War:10914 10915 10916,http://www.redsoxdiehard.com:80/players/unifnums.html:2796,https://www.azcentral.com:443/story/sports/nfl/cardinals/2015/09/06/nfls-dynasties-decade/71605710/:427 