legendari legendari-0 895 https://en.wikipedia.org:443/wiki/Sports_in_Washington:2429,https://www.nytimes.com:443/section/books/review?page=7:863,https://en.wikipedia.org:443/wiki/Sports_in_France:1432,https://en.wikipedia.org:443/wiki/New_England_Patriots:6698,https://en.wikipedia.org:443/wiki/War_in_Afghanistan_(2001%E2%80%932021):11021 11022,https://en.wikipedia.org:443/wiki/MLS:5220,https://en.wikipedia.org:443/wiki/Sports_in_Armenia:1453,https://www.azcentral.com:443/story/sports/nfl/cardinals/2015/09/06/nfls-dynasties-decade/71605710/:438,https://en.wikipedia.org:443/wiki/Baseball:5430 5431,https://en.wikipedia.org:443/wiki/Sports_in_India:9386,https://www.nytimes.com:443/books/best-sellers/:966,https://en.wikipedia.org:443/wiki/Sports_in_the_United_States:2554,https://en.wikipedia.org:443/wiki/Sports_in_Kentucky:2465 2466,https://en.wikipedia.org:443/wiki/United_States_Declaration_of_Independence:6318 