len len-0 1160 https://www.azcentral.com:443/story/sports/nfl/cardinals/2015/09/06/nfls-dynasties-decade/71605710/:439,https://www.packers.com:443/community/shareholders:312,https://www.nytimes.com:443/section/travel:353 354,https://www.pbs.org:443/wgbh/americanexperience/features/klansville-faq/:720,https://en.wikipedia.org:443/wiki/Sports_in_India:9396 9397,https://www.nytimes.com:443/interactive/2024/03/28/travel/things-to-do-mumbai.html:761 762,http://www.oklegislature.gov:80/osStatuesTitle.aspx:49,https://en.wikipedia.org:443/wiki/The_Washington_Post:3407,https://www.nytimes.com:443/2024/05/03/world/europe/campus-protests-rorschach-test.html:631,https://en.wikipedia.org:443/wiki/New_England_Patriots:6699 6700 6701,http://www.britskelisty.cz:80/9808/19980821h.html:603,https://en.wikipedia.org:443/wiki/Supreme_Court_of_the_United_States:9517,https://en.wikipedia.org:443/wiki/United_States_Aquatic_Sports:498 499,http://www.redsoxdiehard.com:80/players/unifnums.html:2833 2834 2835 2836,https://www.nytimes.com:443/section/books/review?page=7:865,https://en.wikipedia.org:443/wiki/Timeline_of_United_States_inventions_(after_1991):1556 1557 1558 1559 1560 1561 