leon leon-0 3077 https://en.wikipedia.org:443/wiki/War_in_Afghanistan_(2001%E2%80%932021):11039,https://en.wikipedia.org:443/wiki/United_States_Declaration_of_Independence:6347,http://www.redsoxdiehard.com:80/players/unifnums.html:2848 2849 2850,https://nytlicensing.com:443/timesdigest/:446,https://en.wikipedia.org:443/wiki/Sports_in_Ethiopia:304,https://en.wikipedia.org:443/wiki/Antisemitism_in_the_United_States:2746,https://en.wikipedia.org:443/wiki/Education_in_the_United_States:5906,https://en.wikipedia.org:443/wiki/Soccer_in_the_United_States:4735,https://en.wikipedia.org:443/wiki/Terrorism_in_the_United_States:6718,https://en.wikipedia.org:443/wiki/Sports_in_Sierra_Leone:295 296 297 298 299 300 301 302 303 304 305 306 307 308 309 310 311 312 313 314 315 316 317 318 319 320 321 322 323 324 325 326 327,https://en.wikipedia.org:443/wiki/Consolidated_city-county:2032,https://en.wikipedia.org:443/wiki/IndyCar_Series:3935,https://nytlicensing.com:443/license-our-content/:423,https://www.nytimes.com:443/2024/05/03/theater/the-miser-review-brooklyn.html:242,https://en.wikipedia.org:443/wiki/Sports_in_Namibia:550,https://www.fmfstateofmind.com:443/:377 378,https://www.azcentral.com:443/story/sports/nfl/cardinals/2015/09/06/nfls-dynasties-decade/71605710/:440,https://en.wikipedia.org:443/wiki/New_England_Patriots:6707 6708 6709 6710 6711,https://en.wikipedia.org:443/wiki/Associate_Justice_of_the_Supreme_Court_of_the_United_States:1727,https://en.wikipedia.org:443/wiki/List_of_mountains_of_the_United_States:3906,https://en.wikipedia.org:443/wiki/Red_River_of_the_South:1048,https://en.wikipedia.org:443/wiki/USA_Cricket:1120,https://en.wikipedia.org:443/wiki/Sports_in_the_United_States:2562,https://en.wikipedia.org:443/wiki/Colonial_history_of_the_United_States:7630 7631,https://en.wikipedia.org:443/wiki/American_Revolution:9076 9077,https://en.wikipedia.org:443/wiki/Olympic_Games:6366,https://en.wikipedia.org:443/wiki/Spanish%E2%80%93American_War:8049,https://en.wikipedia.org:443/wiki/List_of_current_United_States_district_judges:7048 7049,https://nytlicensing.com:443/content/harvard-health-publishing/:975 976 977,https://en.wikipedia.org:443/wiki/Culture_of_the_United_States:6271,https://en.wikipedia.org:443/wiki/United_States_at_the_Universiade:318,https://nytlicensing.com:443/:614,https://nytlicensing.com:443/magazines/:585 586,https://en.wikipedia.org:443/wiki/History_of_the_United_States_(1849%E2%80%931865):3092,https://en.wikipedia.org:443/wiki/Sports_in_American_Samoa:665 666,https://en.wikipedia.org:443/wiki/Summer_Olympic_Games:3132,https://en.wikipedia.org:443/wiki/Americans:4879 4880,https://en.wikipedia.org:443/wiki/Portal:Current_events:1606,https://commons.wikimedia.org:443/wiki/Category:Sports_in_Ecuador:774 775 776 777 778,https://en.wikipedia.org:443/wiki/United_States_dollar:4462 4463,https://en.wikipedia.org:443/wiki/Time_in_the_United_States:924,https://en.wikipedia.org:443/wiki/Sports_in_Ghana:1542,https://en.wikipedia.org:443/wiki/Sports_in_Venezuela:1261 1262 1263,https://en.wikipedia.org:443/wiki/Boston_Red_Sox:5865 5866 