lett lett-0 253 https://www.azcentral.com:443/story/sports/nfl/cardinals/2015/09/06/nfls-dynasties-decade/71605710/:441,https://en.wikipedia.org:443/wiki/New_England_Patriots:6718,https://www.nytimes.com:443/2024/05/03/opinion/campus-protests-israel-gaza.html:1141 1142 