lineman lineman-0 528 https://www.usatoday.com:443/story/sports/mlb/2013/08/11/fox-sports-1-versus-espn/2641247/:502,https://www.patriots.com:443/news/check-out-the-2016-patriots-color-rush-jerseys-270621:639,https://www.azcentral.com:443/story/sports/nfl/cardinals/2015/09/06/nfls-dynasties-decade/71605710/:443,https://en.wikipedia.org:443/wiki/2023_Big_Ten_Conference_football_season:2716 2717 2718,https://en.wikipedia.org:443/wiki/New_England_Patriots:6790,https://www.patriots.com:443/news/ben-coates-elected-to-patriots-hall-of-fame-140866:828 