lion lion-0 2367 https://www.nytimes.com:443/video/op-docs:157,https://en.wikipedia.org:443/wiki/National_Football_League:3960 3961 3962 3963,https://en.wikipedia.org:443/wiki/Sports_in_Kentucky:2546 2547 2548,https://en.wikipedia.org:443/wiki/Boston_Red_Sox:5930 5931,https://www.espn.com:443/college-football/boxscore/_/gameId/401520265:185 186,https://www.nfl.com:443/teams/philadelphia-eagles/:364 365,https://en.wikipedia.org:443/wiki/MLS:5287,https://en.wikipedia.org:443/wiki/Ice_hockey:4266,https://en.wikipedia.org:443/wiki/2023_Big_Ten_Conference_football_season:2722,https://en.wikipedia.org:443/wiki/Sports_in_Arizona:702,https://www.usatoday.com:443/for-subscribers/:149 150,https://www.nfl.com:443/teams/baltimore-ravens/:363 364,https://www.espn.com:443/college-football/boxscore/_/gameId/401520417:203 204,https://en.wikipedia.org:443/wiki/Democratic_Party_(United_States):7189,https://en.wikipedia.org:443/wiki/New_England_Patriots:6810 6811 6812 6813,https://www.sbnation.com:443/2014/10/5/6916597/nba-new-tv-deal-espn-turner-24-billion:369,https://www.nfl.com:443/teams/seattle-seahawks/:347 348,https://www.nfl.com:443/standings/:424 425 426 427,https://en.wikipedia.org:443/wiki/Inter_Miami:3993 3994,https://en.wikipedia.org:443/wiki/List_of_mountains_of_the_United_States:3951 3952 3953,https://en.wikipedia.org:443/wiki/Fenway_Park:5461 5462 5463 5464 5465 5466,https://en.wikipedia.org:443/wiki/Soccer_in_the_United_States:4800,https://www.azcentral.com:443/story/sports/nfl/cardinals/2015/09/06/nfls-dynasties-decade/71605710/:445,https://en.wikipedia.org:443/wiki/Major_professional_sports_teams_of_the_United_States_and_Canada:952 953,https://en.wikipedia.org:443/wiki/American_Revolution:9292,https://en.wikipedia.org:443/wiki/Sports_in_Maryland:3101 3102,https://en.wikipedia.org:443/wiki/Category:Use_mdy_dates_from_October_2023:527 528 529 530 531,https://en.wikipedia.org:443/wiki/United_States_dollar:4545 4546 4547,https://en.wikipedia.org:443/wiki/Henley_Royal_Regatta:2048 2049,https://www.nfl.com:443/teams/indianapolis-colts/:363 364,https://en.wikipedia.org:443/wiki/Sports_in_Washington:2452 2453 2454 2455,https://www.nytimes.com:443/column/op-docs:214 215,https://en.wikipedia.org:443/wiki/Sports_in_South_Carolina:999,https://www.nfl.com:443/standings/conference/2023/REG:396 397 398 399,https://en.wikipedia.org:443/wiki/Jack_Nicklaus:4780 