lombardi lombardi-0 506 https://en.wikipedia.org:443/wiki/National_Football_League:3998 3999 4000 4001 4002 4003 4004,https://en.wikipedia.org:443/wiki/2023_Big_Ten_Conference_football_season:2746,https://en.wikipedia.org:443/wiki/Sports_in_Washington:2480,https://en.wikipedia.org:443/wiki/Jack_Nicklaus:4837 4838 4839,https://www.azcentral.com:443/story/sports/nfl/cardinals/2015/09/06/nfls-dynasties-decade/71605710/:450 451 452,https://en.wikipedia.org:443/wiki/Fenway_Park:5506,https://en.wikipedia.org:443/wiki/Baseball:5529 