lopsid lopsid-0 217 https://www.azcentral.com:443/story/sports/nfl/cardinals/2015/09/06/nfls-dynasties-decade/71605710/:453,https://en.wikipedia.org:443/wiki/Sports_in_Washington:2487,https://en.wikipedia.org:443/wiki/Boston_Red_Sox:5999 