lott lott-0 329 https://en.wikipedia.org:443/wiki/U.S._Immigration_and_Customs_Enforcement:3832,https://en.wikipedia.org:443/wiki/2023_Big_Ten_Conference_football_season:2752 2753,https://en.wikipedia.org:443/wiki/Southern_United_States:6521,https://www.azcentral.com:443/story/sports/nfl/cardinals/2015/09/06/nfls-dynasties-decade/71605710/:459 