lou lou-0 2038 https://en.wikipedia.org:443/wiki/List_of_mountains_of_the_United_States:4071,https://en.wikipedia.org:443/wiki/Fox_Sports_1:2700,https://en.wikipedia.org:443/wiki/American_Sign_Language:3940,https://en.wikipedia.org:443/wiki/Americans:4986,https://www.nytimes.com:443/section/fashion/weddings:527,https://en.wikipedia.org:443/wiki/New_England_Patriots:7012 7013 7014,https://en.wikipedia.org:443/wiki/The_Washington_Post:3537,https://www.azcentral.com:443/story/sports/nfl/cardinals/2015/09/06/nfls-dynasties-decade/71605710/:460,https://en.wikipedia.org:443/wiki/Jack_Nicklaus:4861 4862 4863 4864 4865 4866,https://en.wikipedia.org:443/wiki/American_Revolution:9445,https://commons.wikimedia.org:443/wiki/Category:Sports_in_the_United_States:578,https://en.wikipedia.org:443/wiki/Drug_Enforcement_Administration:3788,https://cooking.nytimes.com:443/:1459,https://www.nytimes.com:443/section/magazine?page=8:848,https://en.wikipedia.org:443/wiki/National_League_(baseball):2101,https://en.wikipedia.org:443/wiki/Boston_Red_Sox:6043 6044 6045 6046 6047 6048 6049 6050 6051 6052 6053,https://en.wikipedia.org:443/wiki/History_of_the_United_States_(2008%E2%80%93present):6422,https://cooking.nytimes.com:443/recipes/1019333-millionaires-shortbread:928,https://en.wikipedia.org:443/wiki/Fenway_Park:5547 5548 5549,https://en.wikipedia.org:443/wiki/Gymnastics_in_the_United_States:1198 1199,https://en.wikipedia.org:443/wiki/History_of_the_United_States_(1945%E2%80%931964):5070,https://en.wikipedia.org:443/wiki/2023_Big_Ten_Conference_football_season:2754,https://www.theguardian.com:443/sport/2017/aug/19/will-mcgregor-v-mayweather-save-american-boxing-or-bury-it?CMP=share_btn_link:879 880,https://en.wikipedia.org:443/wiki/Sports_in_India:9574,https://en.wikipedia.org:443/wiki/College_basketball:3449,http://www.redsoxdiehard.com:80/players/unifnums.html:2908 2909 2910 2911 2912 2913 2914 2915 2916 2917 2918 2919 2920 2921 2922 2923 2924 2925 2926 2927,https://en.wikipedia.org:443/wiki/United_States_men%27s_national_soccer_team:4697 