lynn lynn-0 2273 https://en.wikipedia.org:443/wiki/Portal:Current_events:1658,https://en.wikipedia.org:443/wiki/United_States_Declaration_of_Independence:6663,https://en.wikipedia.org:443/wiki/Speaker_of_the_United_States_House_of_Representatives:2766,https://en.wikipedia.org:443/wiki/Literacy_in_the_United_States:3522 3523,https://en.wikipedia.org:443/wiki/College_athletics_in_the_United_States:2823,https://en.wikipedia.org:443/wiki/New_England:5623,https://en.wikipedia.org:443/wiki/Boston:7676 7677,https://www.nytimes.com:443/section/realestate:410,https://en.wikipedia.org:443/wiki/Francis_Olympic_Field:1150,https://en.wikipedia.org:443/wiki/Education_in_the_United_States:6205,https://www.patriots.com:443/team/players-roster/:465 466,https://en.wikipedia.org:443/wiki/List_of_current_United_States_district_judges:7198 7199 7200 7201 7202 7203 7204 7205,https://en.wikipedia.org:443/wiki/The_Washington_Post:3553,https://www.azcentral.com:443/story/sports/nfl/cardinals/2015/09/06/nfls-dynasties-decade/71605710/:463,https://en.wikipedia.org:443/wiki/New_England_Patriots:7051 7052,https://en.wikipedia.org:443/wiki/Inter_Miami:4099,https://en.wikipedia.org:443/wiki/Vietnam_War:10114,https://en.wikipedia.org:443/wiki/Olympic_Games:6548,https://www.nytimes.com:443/spotlight/podcasts:1195 1196 1197,https://en.wikipedia.org:443/wiki/Sports_in_Kentucky:2691 2692,https://en.wikipedia.org:443/wiki/Fenway_Park:5593,https://en.wikipedia.org:443/wiki/Henley_Royal_Regatta:2087,https://en.wikipedia.org:443/wiki/History_of_the_United_States_(1945%E2%80%931964):5107,https://en.wikipedia.org:443/wiki/Immigrant_health_care_in_the_United_States:3629 3630,https://cooking.nytimes.com:443/recipes/1016295-mint-julep:893,https://en.wikipedia.org:443/wiki/Boston_Red_Sox:6098 6099 6100 6101 6102,https://en.wikipedia.org:443/wiki/Race_and_maternal_health_in_the_United_States:2238 2239,https://en.wikipedia.org:443/wiki/Colonial_history_of_the_United_States:7961,https://www.nytimes.com:443/spotlight/podcasts?page=6:1820 1821 1822,https://en.wikipedia.org:443/wiki/Sports_in_India:9595,https://en.wikipedia.org:443/wiki/American_Revolution:9576,https://en.wikipedia.org:443/wiki/Supreme_Court_of_the_United_States:9852,http://www.redsoxdiehard.com:80/players/unifnums.html:2966 2967 2968 