malcolm malcolm-0 872 https://en.wikipedia.org:443/wiki/History_of_the_United_States_(1945%E2%80%931964):5196,https://en.wikipedia.org:443/wiki/New_England_Patriots:7113 7114 7115 7116 7117,https://en.wikipedia.org:443/wiki/Prescription_drug_prices_in_the_United_States:3609,https://en.wikipedia.org:443/wiki/War_in_Afghanistan_(2001%E2%80%932021):11400,https://en.wikipedia.org:443/wiki/List_of_current_United_States_district_judges:7240 7241,https://en.wikipedia.org:443/wiki/Cold_War:11585,https://www.azcentral.com:443/story/sports/nfl/cardinals/2015/09/06/nfls-dynasties-decade/71605710/:464,https://en.wikipedia.org:443/wiki/American_Revolution:9697,https://en.wikipedia.org:443/wiki/Forbes:1377 1378 1379,https://en.wikipedia.org:443/wiki/Americans:5083 5084,https://en.wikipedia.org:443/wiki/Fenway_Park:5669,https://en.wikipedia.org:443/wiki/Constitution_of_the_United_States:8005 8006 