marion marion-0 1497 https://en.wikipedia.org:443/wiki/Sports_in_France:1531,https://www.nytimes.com:443/section/fashion/weddings:575,https://en.wikipedia.org:443/wiki/List_of_mountains_of_the_United_States:4188,https://en.wikipedia.org:443/wiki/New_England_Patriots:7220 7221 7222 7223,https://en.wikipedia.org:443/wiki/Sports_in_Belize:673,https://www.nytimes.com:443/spotlight/podcasts?page=6:1852 1853 1854 1855 1856 1857 1858 1859 1860 1861 1862 1863 1864 1865 1866 1867 1868 1869 1870 1871 1872 1873 1874 1875 1876,https://en.wikipedia.org:443/wiki/History_of_the_United_States_(1945%E2%80%931964):5259,https://www.azcentral.com:443/story/sports/nfl/cardinals/2015/09/06/nfls-dynasties-decade/71605710/:469 470,https://en.wikipedia.org:443/wiki/Sports_in_South_Carolina:1036 1037 1038,https://en.wikipedia.org:443/wiki/Maternal_mortality_in_the_United_States:2513,https://www.nytimes.com:443/section/well:318,https://en.wikipedia.org:443/wiki/Sports_in_Kentucky:2745,https://www.nytimes.com:443/section/style:357,https://en.wikipedia.org:443/wiki/Indiana:6252 6253 6254 6255 6256 6257 6258 6259 6260 6261 6262,https://en.wikipedia.org:443/wiki/Consolidated_city-county:2190 2191 2192 2193,https://en.wikipedia.org:443/wiki/Vietnam_War:10352,https://en.wikipedia.org:443/wiki/Gymnastics_in_the_United_States:1225,https://en.wikipedia.org:443/wiki/List_of_U.S._states_and_territories_by_life_expectancy:1362,https://www.nytimes.com:443/spotlight/podcasts:1213 1214 1215 1216 1217 1218 1219 1220 1221 1222 1223 1224 