marque marque-0 509 https://en.wikipedia.org:443/wiki/Henley_Royal_Regatta:2139 2140,https://www.azcentral.com:443/story/sports/nfl/cardinals/2015/09/06/nfls-dynasties-decade/71605710/:472,https://en.wikipedia.org:443/wiki/MLB_Network:2497 2498,https://en.wikipedia.org:443/wiki/Spectrum_Sports:507,https://en.wikipedia.org:443/wiki/Fox_Sports_1:2795,https://www.theguardian.com:443/sport/2017/aug/19/will-mcgregor-v-mayweather-save-american-boxing-or-bury-it?CMP=share_btn_link:912 913,https://en.wikipedia.org:443/wiki/MLS:5686 