mcafe mcafe-0 623 https://www.espn.com:443/college-football/boxscore/_/gameId/401520383:210 211,https://www.espn.com:443/college-football/boxscore/_/gameId/401520417:228 229,https://www.azcentral.com:443/story/sports/nfl/cardinals/2015/09/06/nfls-dynasties-decade/71605710/:473,https://www.espn.com:443/college-football/boxscore/_/gameId/401520200:219 220,https://www.espn.com:443/college-football/boxscore/_/gameId/401520265:204 205,https://www.espn.com:443/college-football/boxscore/_/gameId/401520324:232 233,https://en.wikipedia.org:443/wiki/Indiana:6312 6313,https://www.espn.com:443/college-football/boxscore/_/gameId/401520155:210 211 