mccormack mccormack-0 510 https://en.wikipedia.org:443/wiki/Speaker_of_the_United_States_House_of_Representatives:2905 2906,https://en.wikipedia.org:443/wiki/Cold_War:11826,https://en.wikipedia.org:443/wiki/The_Washington_Post:3756,https://en.wikipedia.org:443/wiki/Jack_Nicklaus:5191 5192 5193 5194 5195 5196 5197,https://www.azcentral.com:443/story/sports/nfl/cardinals/2015/09/06/nfls-dynasties-decade/71605710/:474,https://en.wikipedia.org:443/wiki/Democratic_Party_(United_States):7732,https://en.wikipedia.org:443/wiki/Boston:8164 