mcmanaman mcmanaman-0 163 https://en.wikipedia.org:443/wiki/New_England_Patriots:7382,https://www.azcentral.com:443/story/sports/nfl/cardinals/2015/09/06/nfls-dynasties-decade/71605710/:475 