mel mel-0 919 https://en.wikipedia.org:443/wiki/United_States_Declaration_of_Independence:6922,https://en.wikipedia.org:443/wiki/2023_Big_Ten_Conference_football_season:2968 2969 2970 2971 2972 2973 2974 2975,https://www.azcentral.com:443/story/sports/nfl/cardinals/2015/09/06/nfls-dynasties-decade/71605710/:476,http://www.redsoxdiehard.com:80/players/unifnums.html:3165 3166 3167 3168 3169 3170 3171 3172,https://en.wikipedia.org:443/wiki/United_States_Lifesaving_Association:380,https://www.nytimes.com:443/wirecutter/:1841,https://www.nytimes.com:443/ca/:398,https://en.wikipedia.org:443/wiki/Fenway_Park:5907 5908,https://www.nytimes.com:443/:485,https://en.wikipedia.org:443/wiki/Boston_Red_Sox:6455,https://en.wikipedia.org:443/wiki/U.S._Immigration_and_Customs_Enforcement:3941,https://www.nytimes.com:443/international/:396,https://www.nytimes.com:443/interactive/2024/05/03/us/ucla-protests-encampment-violence.html:617 618 