minu minu-0 605 https://en.wikipedia.org:443/wiki/Education_in_the_United_States:6559,https://www.azcentral.com:443/story/sports/nfl/cardinals/2015/09/06/nfls-dynasties-decade/71605710/:483,https://cooking.nytimes.com:443/recipes/1022283-country-panzanella-with-watermelon-dressing:1004,https://en.wikipedia.org:443/wiki/Columbia_(personification):1742,https://en.wikipedia.org:443/wiki/IndyCar_Series:4431 4432 4433 4434 4435 4436 4437,https://en.wikipedia.org:443/wiki/United_States_Polo_Association:868,https://en.wikipedia.org:443/wiki/Fox_Sports_1:2936,https://en.wikipedia.org:443/wiki/Consolidated_city-county:2294 