mitchel mitchel-0 2335 https://www.patriots.com:443/team/players-roster/:517,https://en.wikipedia.org:443/wiki/Jack_Nicklaus:5377,https://en.wikipedia.org:443/wiki/Democratic_Party_(United_States):7945 7946,https://en.wikipedia.org:443/wiki/Education_in_the_United_States:6580,https://www.businessinsider.com:443/a-timeline-of-trumps-efforts-to-overturn-the-2020-election-2021-10:641,https://en.wikipedia.org:443/wiki/National_League_(baseball):2293,https://en.wikipedia.org:443/wiki/The_Washington_Post:3903,https://en.wikipedia.org:443/wiki/Prescription_drug_prices_in_the_United_States:3911,https://www.azcentral.com:443/story/sports/nfl/cardinals/2015/09/06/nfls-dynasties-decade/71605710/:485,https://www.nytimes.com:443/live/2024/05/04/us/biden-trump-campaign:394,https://en.wikipedia.org:443/wiki/Cable_television:2150,https://en.wikipedia.org:443/wiki/Boston:8482,https://en.wikipedia.org:443/wiki/Sports_in_Washington:2759,https://en.wikipedia.org:443/wiki/History_of_the_United_States_(1945%E2%80%931964):5505,https://en.wikipedia.org:443/wiki/New_England_Patriots:7605 7606 7607,https://en.wikipedia.org:443/wiki/Francis_Olympic_Field:1261,https://www.nytimes.com:443/column/unhitched:114 115,https://en.wikipedia.org:443/wiki/Boston_Red_Sox:6602 6603 6604,https://en.wikipedia.org:443/wiki/Sergeant_at_Arms_of_the_United_States_Senate:1288,https://en.wikipedia.org:443/wiki/Constitution_of_the_United_States:8293,https://en.wikipedia.org:443/wiki/List_of_mountains_of_the_United_States:4418 4419 4420 4421 4422 4423 4424,https://en.wikipedia.org:443/wiki/List_of_current_United_States_district_judges:7636,https://www.nytimes.com:443/section/fashion/weddings:626 627,https://en.wikipedia.org:443/wiki/American_Sign_Language:4240 4241 4242,https://en.wikipedia.org:443/wiki/List_of_mountain_peaks_of_the_United_States:2844 2845 2846 2847 2848 2849 2850 2851 2852,https://en.wikipedia.org:443/wiki/Fenway_Park:6042 6043,https://en.wikipedia.org:443/wiki/Henley_Royal_Regatta:2229,https://en.wikipedia.org:443/wiki/Supreme_Court_of_the_United_States:10421,http://www.redsoxdiehard.com:80/players/unifnums.html:3352 3353 3354,https://en.wikipedia.org:443/wiki/Powers_of_the_president_of_the_United_States:1927 1928,https://en.wikipedia.org:443/wiki/Environmental_issues_in_the_United_States:2324,https://en.wikipedia.org:443/wiki/American_League:1473 