montana montana-0 5335 https://en.wikipedia.org:443/wiki/Spanish%E2%80%93American_War:9121,https://en.wikipedia.org:443/wiki/Time_in_the_United_States:1094 1095 1096,https://en.wikipedia.org:443/wiki/Maternal_mortality_in_the_United_States:2906,https://en.wikipedia.org:443/wiki/Sports_teams_in_Virginia:693 694,https://en.wikipedia.org:443/wiki/Education_in_the_United_States:6602,https://www.azcentral.com:443/story/sports/nfl/cardinals/2015/09/06/nfls-dynasties-decade/71605710/:488 489 490 491,https://en.wikipedia.org:443/wiki/Cycling_in_the_United_States:752,https://www.nytimes.com:443/article/senate-races-2024-election.html:661 662 663,https://en.wikipedia.org:443/wiki/Public_utilities_commission:780 781 782,https://en.wikipedia.org:443/wiki/Powers_of_the_president_of_the_United_States:1943,https://en.wikipedia.org:443/wiki/U.S._state:3224 3225 3226,https://en.wikipedia.org:443/wiki/Great_Recession_in_the_United_States:3260,https://en.wikipedia.org:443/wiki/Articles_of_Confederation:4758,https://en.wikipedia.org:443/wiki/Sergeant_at_Arms_of_the_United_States_Senate:1290,https://en.wikipedia.org:443/wiki/History_of_the_United_States_(2008%E2%80%93present):7014 7015,https://en.wikipedia.org:443/wiki/Colonial_history_of_the_United_States:8659,https://en.wikipedia.org:443/wiki/Consolidated_city-county:2304 2305 2306,https://en.wikipedia.org:443/wiki/Sports_in_Arizona:780,https://en.wikipedia.org:443/wiki/Agriculture_in_the_United_States:3574 3575,https://en.wikipedia.org:443/wiki/Special_district_(United_States):1078,https://en.wikipedia.org:443/wiki/Sports_in_Kentucky:2938,https://en.wikipedia.org:443/wiki/Disc_golf_in_the_United_States:717 718,https://en.wikipedia.org:443/wiki/Summer_Olympic_Games:3531,https://en.wikipedia.org:443/wiki/Boston:8516,https://en.wikipedia.org:443/wiki/Housing_in_the_United_States:1032,https://en.wikipedia.org:443/wiki/List_of_current_United_States_district_judges:7659 7660 7661 7662 7663,https://en.wikipedia.org:443/wiki/List_of_mountain_peaks_of_the_United_States:2854 2855 2856 2857 2858 2859,https://en.wikipedia.org:443/wiki/Federal_tribunals_in_the_United_States:1213,https://en.wikipedia.org:443/wiki/Tribal_sovereignty_in_the_United_States:2731,https://nytlicensing.com:443/content/harvard-health-publishing/:1145,https://en.wikipedia.org:443/wiki/History_of_the_United_States_(1849%E2%80%931865):3550 3551,https://en.wikipedia.org:443/wiki/Constitution_of_the_United_States:8355,https://en.wikipedia.org:443/wiki/American_Sign_Language:4301 4302,https://en.wikipedia.org:443/wiki/Outline_of_the_history_of_the_United_States:3263 3264 3265 3266,https://en.wikipedia.org:443/wiki/Jack_Nicklaus:5410,https://en.wikipedia.org:443/wiki/American_Revolution:10283,https://en.wikipedia.org:443/wiki/Template:Sports_in_the_United_States:203,https://www.nytimes.com:443/2024/05/02/us/politics/abortion-ballot-measures-2024.html:678 679,https://en.wikipedia.org:443/wiki/Basketball_in_the_United_States:723,https://en.wikipedia.org:443/wiki/Perpetual_Union:2177,https://en.wikipedia.org:443/wiki/United_States_Minor_Outlying_Islands:1103 1104,https://en.wikipedia.org:443/wiki/Sports_in_Maryland:3653,https://en.wikipedia.org:443/wiki/Sports_in_the_United_States:2963,https://en.wikipedia.org:443/wiki/National_symbols_of_the_United_States:1017,https://en.wikipedia.org:443/wiki/Bodybuilding_in_the_United_States:683,https://nytlicensing.com:443/:716,https://en.wikipedia.org:443/wiki/National_Federation_of_State_High_School_Associations:911 912 913,https://en.wikipedia.org:443/wiki/List_of_mountains_of_the_United_States:4440 4441 4442 4443 4444 4445 4446 4447 4448 4449 4450 4451 4452 4453 4454,https://en.wikipedia.org:443/wiki/List_of_U.S._states_and_territories_by_life_expectancy:1464 1465 1466 1467,https://en.wikipedia.org:443/wiki/Environmental_issues_in_the_United_States:2335,https://en.wikipedia.org:443/wiki/United_States_federal_civil_service:1572,https://en.wikipedia.org:443/wiki/Sports_in_South_Carolina:1103,https://nytlicensing.com:443/timesdigest/:518,https://en.wikipedia.org:443/wiki/Olympic_Games:7033,https://commons.wikimedia.org:443/wiki/Category:Sports_in_Maryland:461,https://en.wikipedia.org:443/wiki/List_of_U.S._state_statutory_codes:660 661 662 663 664,https://en.wikipedia.org:443/wiki/Comparison_of_U.S._state_and_territory_governments:1232 1233 1234 1235 1236 1237 1238 1239,https://en.wikipedia.org:443/wiki/History_of_the_United_States_(1945%E2%80%931964):5531 5532,https://en.wikipedia.org:443/wiki/Soccer_in_the_United_States:5519,https://en.wikipedia.org:443/wiki/Sports_in_Washington:2798,https://en.wikipedia.org:443/wiki/Culture_of_the_United_States:7076 7077,https://en.wikipedia.org:443/wiki/Speaker_of_the_United_States_House_of_Representatives:3081,https://en.wikipedia.org:443/wiki/Indiana:6602,https://en.wikipedia.org:443/wiki/Vietnam_War:11010,https://en.wikipedia.org:443/wiki/United_States_Attorney:1412 1413,https://www.businessinsider.com:443/real-estate:832 833,https://www.cookingchanneltv.com:443/recipes/tia-mowry/spaghetti-and-turkey-meatballs-2803024:530,https://en.wikipedia.org:443/wiki/Democratic_Party_(United_States):7993,https://en.wikipedia.org:443/wiki/Greenhouse_gas_emissions_by_the_United_States:2634 2635,https://en.wikipedia.org:443/wiki/Supreme_Court_of_the_United_States:10446,https://nytlicensing.com:443/magazines/:710 