moss moss-0 1497 https://en.wikipedia.org:443/wiki/Cold_War:12402 12403,https://en.wikipedia.org:443/wiki/List_of_current_United_States_district_judges:7701 7702,https://www.sportsbusinessjournal.com:443/Daily/Issues/2024/04/29.aspx:599 600,https://www.nytimes.com:443/series/opinion-audio:224,https://en.wikipedia.org:443/wiki/List_of_mountains_of_the_United_States:4482,https://www.nytimes.com:443/section/nyregion:323,https://www.nytimes.com:443/section/style:393,https://www.nytimes.com:443/spotlight/podcasts?page=6:2021 2022,https://www.azcentral.com:443/story/sports/nfl/cardinals/2015/09/06/nfls-dynasties-decade/71605710/:492,https://www.nytimes.com:443/section/nyregion?page=4:738,https://www.sportsbusinessjournal.com:443/Articles/2023/10/23/mls-sets-attendance-record-for-season:539 540,https://www.nytimes.com:443/spotlight/podcasts:1309 1310,https://www.nytimes.com:443/section/realestate:438,https://en.wikipedia.org:443/wiki/Vietnam_War:11058,https://en.wikipedia.org:443/wiki/Cable_television:2174,https://www.sportsbusinessjournal.com:443/Journal/Issues/2012/04/02/Media/Fox-channel.aspx:746 747,https://www.sportsbusinessjournal.com:443/Journal/Issues/2024/03/04.aspx:594 595,https://en.wikipedia.org:443/wiki/New_England_Patriots:7665 7666 7667 7668 7669 7670 7671 7672 7673 7674 7675,https://en.wikipedia.org:443/wiki/Henley_Royal_Regatta:2246,https://www.sportsbusinessjournal.com:443/Archive/Sections/International.aspx:656 657,http://www.redsoxdiehard.com:80/players/unifnums.html:3391 3392 