motion motion-0 2302 https://en.wikipedia.org:443/wiki/Volleyball:2893,https://en.wikipedia.org:443/wiki/MLB_Network:2798,https://www.nytimes.com:443/column/out-there:186,https://en.wikipedia.org:443/wiki/United_States_Declaration_of_Independence:7133,https://en.wikipedia.org:443/wiki/Snowboarding:2339,https://en.wikipedia.org:443/wiki/Timeline_of_United_States_inventions_(after_1991):1784 1785,https://www.usatoday.com:443/story/sports/mlb/2013/08/11/fox-sports-1-versus-espn/2641247/:563,https://en.wikipedia.org:443/wiki/Consolidated_city-county:2312,https://www.nytimes.com:443/2024/04/02/world/middleeast/gaza-al-shifa-hospital.html:762,https://en.wikipedia.org:443/wiki/New_England_Patriots:7676,https://www.nytimes.com:443/2024/05/02/business/horse-racing-deaths-kentucky-derby.html:880 881,https://www.nytimes.com:443/interactive/2024/nyregion/trump-manhattan-criminal-trial-witnesses.html:470,https://en.wikipedia.org:443/wiki/Sports_in_South_Korea:1401,https://en.wikipedia.org:443/wiki/Culture_of_the_United_States:7101 7102,https://en.wikipedia.org:443/wiki/Spanish%E2%80%93American_War:9164 9165 9166 9167 9168,https://en.wikipedia.org:443/wiki/Cold_War:12408 12409 12410,https://en.wikipedia.org:443/wiki/Beach_volleyball:2810 2811,https://www.nytimes.com:443/2024/04/14/fashion/vintage-watches-reissued.html:500 501,https://en.wikipedia.org:443/wiki/Supreme_Court_of_the_United_States:10475 10476,https://en.wikipedia.org:443/wiki/Municipal_council:1724,https://www.nytimes.com:443/2024/05/02/us/blast-mortar-brain-injury-military.html:833,https://www.nytimes.com:443/section/arts/dance:274,https://en.wikipedia.org:443/wiki/Henley_Royal_Regatta:2249 2250,https://www.theguardian.com:443/us-news/2020/aug/25/qanon-conspiracy-theory-explained-trump-what-is:674,https://cooking.nytimes.com:443/recipes/1018626-eggs-benedict:1139,https://en.wikipedia.org:443/wiki/New_England:6267,https://en.wikipedia.org:443/wiki/Speaker_of_the_United_States_House_of_Representatives:3088 3089 3090,https://www.azcentral.com:443/story/sports/nfl/cardinals/2015/09/06/nfls-dynasties-decade/71605710/:493,https://en.wikipedia.org:443/wiki/American_Sign_Language:4332,https://www.nytimes.com:443/video/us/100000007348445/breonna-taylor-death-cops.html:643,https://en.wikipedia.org:443/wiki/Drug_Enforcement_Administration:4088 