mvp mvp-0 1286 https://en.wikipedia.org:443/wiki/USA_Baseball:3662,https://en.wikipedia.org:443/wiki/NBA:4238 4239 4240 4241 4242 4243 4244 4245 4246 4247 4248 4249 4250 4251 4252 4253 4254 4255 4256 4257 4258 4259 4260 4261,https://www.forbes.com:443/sites/mikeozanian/2019/05/10/david-beckham-reportedly-buys-stake-in-his-company-at-150-million-valuation/:168,https://en.wikipedia.org:443/wiki/Fenway_Park:6153 6154 6155 6156,https://en.wikipedia.org:443/wiki/WNBA%27s_Top_15_Team:454 455 456 457 458 459 460 461 462 463 464 465 466 467 468 469 470 471 472 473 474 475,https://www.azcentral.com:443/story/sports/nfl/cardinals/2015/09/06/nfls-dynasties-decade/71605710/:497,https://en.wikipedia.org:443/wiki/2023_Big_Ten_Conference_football_season:3341 3342,https://en.wikipedia.org:443/wiki/Boston_Red_Sox:6793 6794 6795 6796 6797 6798 6799 6800 6801 6802 6803 6804 6805 6806 6807 6808 6809,https://en.wikipedia.org:443/wiki/Sports_in_Washington:2845 2846,https://en.wikipedia.org:443/wiki/MLS:6471,https://en.wikipedia.org:443/wiki/New_England_Patriots:7705 7706 7707 7708 7709 7710 7711 7712,https://en.wikipedia.org:443/wiki/Disc_golf_in_the_United_States:723,https://en.wikipedia.org:443/wiki/Sports_in_Kentucky:2995,https://en.wikipedia.org:443/wiki/National_Football_League:4326 4327 4328 4329 