nationwid nationwid-0 3642 https://www.nytimes.com:443/news-event/weather-climate:299,https://www.wired.com:443/2016/08/olympic-cities-everywhere/:516,https://en.wikipedia.org:443/wiki/Jack_Nicklaus:5508 5509,https://en.wikipedia.org:443/wiki/Southern_United_States:7500,https://en.wikipedia.org:443/wiki/Literacy_in_the_United_States:3854 3855,https://en.wikipedia.org:443/wiki/Antisemitism_in_the_United_States:3059,https://en.wikipedia.org:443/wiki/New_England:6429 6430 6431,https://www.nytimes.com:443/section/health?page=7:1168,https://en.wikipedia.org:443/wiki/MLS:6570 6571,https://www.businessinsider.com:443/real-estate:871,https://www.nytimes.com:443/2024/05/02/us/politics/abortion-ballot-measures-2024.html:689,https://en.wikipedia.org:443/wiki/Culture_of_the_United_States:7310,https://en.wikipedia.org:443/wiki/U.S._state:3309,https://en.wikipedia.org:443/wiki/Major_professional_sports_teams_of_the_United_States_and_Canada:1170,https://en.wikipedia.org:443/wiki/Maternal_mortality_in_the_United_States:3173,https://en.wikipedia.org:443/wiki/Democratic_Party_(United_States):8150,https://en.wikipedia.org:443/wiki/U.S._Immigration_and_Customs_Enforcement:4153 4154,https://en.wikipedia.org:443/wiki/History_of_the_United_States_(2008%E2%80%93present):7184 7185,https://www.nytimes.com:443/live/2024/05/02/us/biden-trump-campaign:1552 1553,https://en.wikipedia.org:443/wiki/Sports_in_the_United_States:3059,https://en.wikipedia.org:443/wiki/Environmental_issues_in_the_United_States:2412,https://www.cnn.com:443/2020/08/24/politics/muslim-ice-detainees-pork-meals/index.html:587,https://en.wikipedia.org:443/wiki/United_States_men%27s_national_soccer_team:5477,https://en.wikipedia.org:443/wiki/Terrorism_in_the_United_States:7756,https://en.wikipedia.org:443/wiki/Architecture_of_the_United_States:3863,https://en.wikipedia.org:443/wiki/Spanish%E2%80%93American_War:9318 9319,https://en.wikipedia.org:443/wiki/Housing_in_the_United_States:1047 1048,https://www.themarshallproject.org:443/2022/06/14/what-did-fbi-data-say-about-crime-in-2021-it-s-too-unreliable-to-tell:736 737 738,https://en.wikipedia.org:443/wiki/Vietnam_War:11265 11266 11267 11268 11269,https://en.wikipedia.org:443/wiki/War_in_Afghanistan_(2001%E2%80%932021):12373,https://www.forbes.com:443/sites/carlieporterfield/2022/07/26/heres-why-pickleball-the-fastest-growing-sport-in-america-is-bill-gates-favorite-game/:318,https://www.azcentral.com:443/story/sports/nfl/cardinals/2015/09/06/nfls-dynasties-decade/71605710/:500,https://en.wikipedia.org:443/wiki/IndyCar_Series:4657,https://wtop.com:443/virginia/2020/01/virginia-becomes-38th-state-to-ratify-equal-rights-amendment-but-it-may-be-too-late/:463,https://news.gallup.com:443/poll/224864/football-americans-favorite-sport-watch.aspx:694,https://en.wikipedia.org:443/wiki/Cold_War:12648,https://www.nytimes.com:443/2024/04/24/podcasts/laufey-gen-zs-jazz-icon-sings-for-anxious-generation.html:1240,https://www.nytimes.com:443/section/science?page=9:1508,https://en.wikipedia.org:443/wiki/Soccer_in_the_United_States:5730,https://en.wikipedia.org:443/wiki/Cable_television:2229,https://en.wikipedia.org:443/wiki/Constitution_of_the_United_States:8556,https://en.wikipedia.org:443/wiki/Sports_in_Venezuela:1465 1466,https://www.nytimes.com:443/interactive/2021/07/07/opinion/minimum-corporate-tax.html:403,https://en.wikipedia.org:443/wiki/MLB_Network:2848,https://www.cnn.com:443/2020/09/26/politics/supreme-court-conservative/index.html:905,https://www.usopc.org:443/paralympic-sport-development:134,https://en.wikipedia.org:443/wiki/National_Football_League:4419,https://www.nytimes.com:443/news-event/2024-election:315 316 317 