nfc nfc-0 1651 https://www.patriots.com:443/news/ben-coates-elected-to-patriots-hall-of-fame-140866:947 948 949 950,https://www.nfl.com:443/teams/philadelphia-eagles/:431 432 433 434 435 436 437 438 439 440 441,https://en.wikipedia.org:443/wiki/New_England_Patriots:7848 7849 7850 7851,https://www.nfl.com:443/standings/conference/2023/REG:459 460 461 462 463 464 465 466 467,https://www.nfl.com:443/teams/seattle-seahawks/:419 420 421 422 423 424 425 426 427 428 429,https://en.wikipedia.org:443/wiki/Sports_in_the_United_States:3170 3171 3172 3173 3174 3175,https://www.patriots.com:443/news/check-out-the-2016-patriots-color-rush-jerseys-270621:762 763 764 765,https://www.patriots.com:443/cheerleaders/pat-patriot:456 457 458 459,https://www.azcentral.com:443/story/sports/nfl/cardinals/2015/09/06/nfls-dynasties-decade/71605710/:502,https://www.patriots.com:443/team/players-roster/:531 532 533 534,https://en.wikipedia.org:443/wiki/Sports_in_India:10918,https://en.wikipedia.org:443/wiki/National_Football_League:4478 4479 4480 4481 4482 4483 4484 4485 4486 4487 4488 4489 4490 4491 4492 4493 4494 4495 4496 4497 4498 4499 4500 4501 4502,https://www.nfl.com:443/teams/baltimore-ravens/:426 427 428 429 430 431 432 433,https://www.nfl.com:443/teams/indianapolis-colts/:427 428 429 430 431 432 433 434,https://www.packers.com:443/community/shareholders:370 371 372 373,https://en.wikipedia.org:443/wiki/Sports_in_Washington:3005 3006,https://www.nfl.com:443/standings/:493 494 495 496 497 498 499 500 501 502 503 504,https://www.commanders.com:443/news/commanders-agree-to-trade-de-montez-sweat-to-chicago-bears:399 400 401 402,https://bolavip.com:443/en:604 605 