nicknam nicknam-0 3136 https://en.wikipedia.org:443/wiki/National_League_(baseball):2497 2498 2499 2500 2501 2502 2503 2504 2505,https://en.wikipedia.org:443/wiki/MLS:6654 6655,https://en.wikipedia.org:443/wiki/War_in_Afghanistan_(2001%E2%80%932021):12662,https://en.wikipedia.org:443/wiki/List_of_U.S._state_statutory_codes:689,https://en.wikipedia.org:443/wiki/Basketball_in_the_United_States:789,https://en.wikipedia.org:443/wiki/IndyCar_Series:4721,https://en.wikipedia.org:443/wiki/Indiana:6884 6885 6886 6887,https://en.wikipedia.org:443/wiki/Sports_in_India:10925,https://en.wikipedia.org:443/wiki/Boston:8873 8874 8875 8876 8877 8878,https://www.azcentral.com:443/story/sports/nfl/cardinals/2015/09/06/nfls-dynasties-decade/71605710/:512,https://en.wikipedia.org:443/wiki/Sports_in_Kentucky:3077 3078,https://en.wikipedia.org:443/wiki/Jack_Nicklaus:6032 6033 6034 6035 6036,https://en.wikipedia.org:443/wiki/Comparison_of_U.S._state_and_territory_governments:1271,https://en.wikipedia.org:443/wiki/Major_professional_sports_teams_of_the_United_States_and_Canada:1291,https://en.wikipedia.org:443/wiki/Sports_in_Ghana:1753,https://en.wikipedia.org:443/wiki/Spanish%E2%80%93American_War:9538 9539,https://en.wikipedia.org:443/wiki/Sports_in_Washington:3055,https://en.wikipedia.org:443/wiki/U.S._state:3349,https://en.wikipedia.org:443/wiki/Sports_in_El_Salvador:2155 2156 2157,https://en.wikipedia.org:443/wiki/Carlos_Bocanegra:1857 1858,https://en.wikipedia.org:443/wiki/Boston_Red_Sox:7066 7067 7068 7069 7070 7071 7072 7073 7074 7075 7076 7077 7078 7079 7080 7081 7082 7083 7084 7085,https://en.wikipedia.org:443/wiki/American_League:1571 1572 1573 1574 1575 1576 1577 1578,https://en.wikipedia.org:443/wiki/National_Football_League:4823,https://en.wikipedia.org:443/wiki/Sports_in_Poland:1681 1682 1683,https://en.wikipedia.org:443/wiki/United_States_men%27s_national_soccer_team:5533,https://en.wikipedia.org:443/wiki/United_States_dollar:5124 5125 5126 5127 5128 5129 5130 5131,https://en.wikipedia.org:443/wiki/Olympic_Games:7335,https://en.wikipedia.org:443/wiki/List_of_U.S._states_and_territories_by_life_expectancy:1538,https://en.wikipedia.org:443/wiki/Southern_United_States:7650,https://en.wikipedia.org:443/wiki/College_athletics_in_the_United_States:3227,https://en.wikipedia.org:443/wiki/New_England:6524,https://en.wikipedia.org:443/wiki/Ice_hockey:4831,https://www.nytimes.com:443/2024/05/04/world/europe/uk-rishi-sunak-conservatives-elections.html:591,https://en.wikipedia.org:443/wiki/Bodybuilding_in_the_United_States:726,https://en.wikipedia.org:443/wiki/U.S._Immigration_and_Customs_Enforcement:4189,https://en.wikipedia.org:443/wiki/Fenway_Park:6301 6302,https://en.wikipedia.org:443/wiki/Sports_in_Brunei:1439,https://en.wikipedia.org:443/wiki/New_England_Patriots:8062 8063 8064 8065 8066,https://en.wikipedia.org:443/wiki/List_of_mountains_of_the_United_States:6827,https://en.wikipedia.org:443/wiki/Inter_Miami:5342 5343,https://en.wikipedia.org:443/wiki/Major_Arena_Soccer_League:1665 1666,https://www.nytimes.com:443/2024/04/14/fashion/vintage-watches-reissued.html:520 521,https://en.wikipedia.org:443/wiki/Baseball:6182 