oakland oakland-0 1856 https://en.wikipedia.org:443/wiki/MLB_Network:3235,https://en.wikipedia.org:443/wiki/Boston:9092 9093,https://en.wikipedia.org:443/wiki/Jack_Nicklaus:6101,https://en.wikipedia.org:443/wiki/American_League:1594 1595 1596 1597 1598 1599 1600 1601 1602 1603 1604,https://en.wikipedia.org:443/wiki/Southern_United_States:7864,https://en.wikipedia.org:443/wiki/Fenway_Park:6419 6420 6421 6422 6423 6424 6425 6426,https://en.wikipedia.org:443/wiki/List_of_current_United_States_district_judges:7961 7962 7963 7964 7965 7966 7967,https://en.wikipedia.org:443/wiki/National_League_(baseball):2531,https://en.wikipedia.org:443/wiki/Major_professional_sports_teams_of_the_United_States_and_Canada:1305 1306 1307 1308 1309,https://en.wikipedia.org:443/wiki/Literacy_in_the_United_States:3973 3974 3975 3976,https://www.azcentral.com:443/story/sports/nfl/cardinals/2015/09/06/nfls-dynasties-decade/71605710/:514,https://en.wikipedia.org:443/wiki/Housing_in_the_United_States:1078,https://en.wikipedia.org:443/wiki/Boston_Red_Sox:7216 7217 7218 7219 7220 7221 7222 7223 7224 7225,https://en.wikipedia.org:443/wiki/Sports_in_Washington:3097,https://en.wikipedia.org:443/wiki/Sports_in_Arizona:842,https://en.wikipedia.org:443/wiki/Soccer_in_the_United_States:6001,https://en.wikipedia.org:443/wiki/West_Coast_of_the_United_States:2026,https://en.wikipedia.org:443/wiki/Consolidated_city-county:2433,https://www.sbnation.com:443/2014/10/5/6916597/nba-new-tv-deal-espn-turner-24-billion:483,https://en.wikipedia.org:443/wiki/New_England_Patriots:8212 8213 8214 8215 8216 8217 8218 8219 8220,https://en.wikipedia.org:443/wiki/List_of_U.S._states_and_territories_by_life_expectancy:1563,https://en.wikipedia.org:443/wiki/Sports_in_Maryland:3828 3829,https://www.theatlantic.com:443/magazine/archive/2023/01/homelessness-affordable-housing-crisis-democrats-causes/672224/:908 