occas occas-0 4063 https://en.wikipedia.org:443/wiki/Fenway_Park:6431,https://en.wikipedia.org:443/wiki/Supreme_Court_of_the_United_States:10901,https://en.wikipedia.org:443/wiki/Sports_in_South_Korea:1477,https://cooking.nytimes.com:443/recipes/1019333-millionaires-shortbread:1107 1108 1109 1110,https://en.wikipedia.org:443/wiki/Baseball:6267,https://en.wikipedia.org:443/wiki/Iroquois:10190 10191 10194,https://www.wired.com:443/2016/08/olympic-cities-everywhere/:531,https://en.wikipedia.org:443/wiki/Ice_hockey:4920,https://en.wikipedia.org:443/wiki/Indiana:7082 7083,https://cooking.nytimes.com:443/recipes/1025421-creole-broiled-shrimp-and-baby-corn:683 684 685 686,https://en.wikipedia.org:443/wiki/History_of_the_United_States_(2008%E2%80%93present):7544,https://en.wikipedia.org:443/wiki/Powers_of_the_president_of_the_United_States:2036,https://cooking.nytimes.com:443/about-us:585 586 587 588,https://en.wikipedia.org:443/wiki/Sports_in_Syria:1237 1238 1239 1240,https://en.wikipedia.org:443/wiki/Speaker_of_the_United_States_House_of_Representatives:3274 3275,https://en.wikipedia.org:443/wiki/Sports_in_El_Salvador:2179,https://en.wikipedia.org:443/wiki/Soccer_in_the_United_States:6003 6004,https://en.wikipedia.org:443/wiki/Federal_tribunals_in_the_United_States:1248 1249,https://en.wikipedia.org:443/wiki/Olympic_Games:7455,https://en.wikipedia.org:443/wiki/Southern_United_States:7876,https://en.wikipedia.org:443/wiki/United_States_Declaration_of_Independence:7441,https://www.nytimes.com:443/wirecutter/:1988,https://en.wikipedia.org:443/wiki/United_States_at_the_FIFA_Confederations_Cup:580,https://www.nytimes.com:443/2024/05/04/us/politics/biden-insulin-voters-drugs.html:616,https://en.wikipedia.org:443/wiki/Summer_Olympic_Games:3752 3753 3754,https://en.wikipedia.org:443/wiki/WNBA%27s_Top_15_Team:499,https://cooking.nytimes.com:443/recipes/1024469-tomato-cheddar-toasts:995 996 997 998,https://www.packers.com:443/community/shareholders:393,https://en.wikipedia.org:443/wiki/NBA:4886,https://cooking.nytimes.com:443/recipes/1024760-chocolate-layer-cake:1376 1377 1379 1380,https://cooking.nytimes.com:443/christmas:1179 1180 1181,https://www.azcentral.com:443/story/sports/nfl/cardinals/2015/09/06/nfls-dynasties-decade/71605710/:516,https://en.wikipedia.org:443/wiki/Sports_in_Namibia:768 770,https://cooking.nytimes.com:443/recipes/1018626-eggs-benedict:1184 1185 1186 1187 1188,https://en.wikipedia.org:443/wiki/Wikipedia:File_upload_wizard:1192,https://cooking.nytimes.com:443/recipes/1013611-rhubarb-upside-down-cake:1200 1201 1202 1203,https://en.wikipedia.org:443/wiki/Jack_Nicklaus:6109,https://www.nytimes.com:443/2024/05/02/style/central-park-hat-luncheon.html:552,https://en.wikipedia.org:443/wiki/Culture_of_the_United_States:7585 7587 7588,https://en.wikipedia.org:443/wiki/Sports_in_Armenia:1725,https://en.wikipedia.org:443/wiki/Boston_Red_Sox:7231 7232,https://www.nytimes.com:443/column/out-there:201,https://cooking.nytimes.com:443/recipes/1023559-ina-gartens-bourbon-chocolate-pecan-pie:1091 1092 1093 1094,https://nytlicensing.com:443/magazines/:769,https://cooking.nytimes.com:443/recipes/1022283-country-panzanella-with-watermelon-dressing:1116 1117 1118 1119,https://cooking.nytimes.com:443/:1775 1776 1777 1778,https://en.wikipedia.org:443/wiki/Constitution_of_the_United_States:8720,https://www.theguardian.com:443/sport/2017/aug/19/will-mcgregor-v-mayweather-save-american-boxing-or-bury-it?CMP=share_btn_link:1046,https://www.law.cornell.edu:443/supremecourt/text/74/700:3102,https://en.wikipedia.org:443/wiki/Sports_in_France:1709,https://cooking.nytimes.com:443/topics/our-best-pasta-recipes:498 499 500,https://en.wikipedia.org:443/wiki/MLS:6791,https://www.battlefields.org:443/preserve/saved-land:466,https://en.wikipedia.org:443/wiki/U.S._state:3417,https://cooking.nytimes.com:443/recipes/1016295-mint-julep:1074 1075 1076 1077,https://en.wikipedia.org:443/wiki/Articles_of_Confederation:5038,https://en.wikipedia.org:443/wiki/Columbia_(personification):1886,https://en.wikipedia.org:443/wiki/Henley_Royal_Regatta:2324 