oppon oppon-0 4651 https://en.wikipedia.org:443/wiki/American_exceptionalism:4354,https://en.wikipedia.org:443/wiki/Summer_Olympic_Games:4090,https://en.wikipedia.org:443/wiki/Spanish%E2%80%93American_War:9880,https://en.wikipedia.org:443/wiki/Sports_in_Ethiopia:406,https://en.wikipedia.org:443/wiki/Fenway_Park:6502 6503,https://www.theguardian.com:443/sport/2004/jul/27/cricket.comment:552,https://en.wikipedia.org:443/wiki/United_States_men%27s_national_soccer_team:5754 5755,https://en.wikipedia.org:443/wiki/Professional_boxer:1428,https://en.wikipedia.org:443/wiki/USA_Baseball:4233 4234 4235 4236 4237 4238 4239 4240 4241,https://en.wikipedia.org:443/wiki/Carlos_Bocanegra:1910,https://en.wikipedia.org:443/wiki/NBA:4989 4990 4991 4992 4993,https://en.wikipedia.org:443/wiki/United_States_Declaration_of_Independence:7543 7544 7545,https://en.wikipedia.org:443/wiki/College_basketball:4301 4302 4303 4304 4305 4306 4307 4308 4309 4310 4311 4312 4313,https://wtop.com:443/virginia/2020/01/virginia-becomes-38th-state-to-ratify-equal-rights-amendment-but-it-may-be-too-late/:495 496,https://www.nytimes.com:443/2024/04/26/us/politics/kristi-noem-dog-killing.html:416,https://en.wikipedia.org:443/wiki/History_of_the_United_States_(1849%E2%80%931865):3812 3813,https://en.wikipedia.org:443/wiki/War_in_Afghanistan_(2001%E2%80%932021):13368,https://en.wikipedia.org:443/wiki/IndyCar_Series:4853,https://en.wikipedia.org:443/wiki/Ice_hockey:5057 5058 5059 5060 5061 5062 5063 5064 5065 5066 5067 5068 5069 5070 5071 5072 5073 5074 5075 5076 5077 5078 5079,https://en.wikipedia.org:443/wiki/Vietnam_War:12171 12172,https://www.azcentral.com:443/story/sports/nfl/cardinals/2015/09/06/nfls-dynasties-decade/71605710/:522,https://en.wikipedia.org:443/wiki/Immigrant_health_care_in_the_United_States:4104,https://www.commanders.com:443/news/commanders-agree-to-trade-de-montez-sweat-to-chicago-bears:441,https://www.nytimes.com:443/2005/09/18/opinion/conventional-wisdom.html:364,https://en.wikipedia.org:443/wiki/Supreme_Court_of_the_United_States:11198,https://www.nytimes.com:443/live/2024/05/02/us/biden-trump-campaign:1632,https://en.wikipedia.org:443/wiki/Soccer_in_the_United_States:6152 6153,https://en.wikipedia.org:443/wiki/Beach_volleyball:3060 3061 3062 3063 3064 3065 3066 3067 3068 3069 3070 3071 3072 3073 3074 3075,https://en.wikipedia.org:443/wiki/Inter_Miami:5515,https://en.wikipedia.org:443/wiki/College_athletics_in_the_United_States:3345 3346 3347,https://en.wikipedia.org:443/wiki/Volleyball:3146 3147 3148 3149 3150 3151 3152 3153 3154 3155 3156 3157 3158 3159 3160 3161 3162 3163 3164 3165 3166 3167 3168 3169 3170 3171 3172 3173 3174 3175 3176 3177 3178,https://en.wikipedia.org:443/wiki/History_of_the_United_States_(1945%E2%80%931964):5896,https://en.wikipedia.org:443/wiki/Baseball:6445,https://www.patriots.com:443/news/check-out-the-2016-patriots-color-rush-jerseys-270621:842 843 844,https://en.wikipedia.org:443/wiki/National_Football_League:4986 4987 4988 4989 4990 4991,https://en.wikipedia.org:443/wiki/History_of_the_United_States_(2008%E2%80%93present):7718,https://en.wikipedia.org:443/wiki/Speaker_of_the_United_States_House_of_Representatives:3404 3405 3406 3407,https://en.wikipedia.org:443/wiki/Democratic_Party_(United_States):8643 8644 8645 8646 8647,https://www.forbes.com:443/sites/zachslaton/2012/10/15/how-the-mls-playoff-format-punishes-ambitious-teams/:628,https://en.wikipedia.org:443/wiki/Sports_in_Armenia:1803,https://en.wikipedia.org:443/wiki/Iroquois:10458,https://en.wikipedia.org:443/wiki/2023_Big_Ten_Conference_football_season:3798 3799,https://en.wikipedia.org:443/wiki/Gymnastics_in_the_United_States:1438,https://www.nytimes.com:443/article/senate-races-2024-election.html:734 735 736,https://en.wikipedia.org:443/wiki/American_Revolution:11023,https://en.wikipedia.org:443/wiki/Drug_Enforcement_Administration:4519,https://theconversation.com:443/the-rise-and-rise-of-ultimate-fighting-and-why-boxing-is-now-so-passe-55910:413,https://en.wikipedia.org:443/wiki/Olympic_Games:8364,https://www.fmfstateofmind.com:443/:549,https://www.patriots.com:443/news/ben-coates-elected-to-patriots-hall-of-fame-140866:1032 1033,https://www.nytimes.com:443/2024/05/04/opinion/alexandria-ocasio-cortez.html:854,https://en.wikipedia.org:443/wiki/Articles_of_Confederation:5078,https://en.wikipedia.org:443/wiki/New_England_Patriots:8406 8407 8408 8409 8410 8411 8412,https://en.wikipedia.org:443/wiki/Cold_War:13410 13411 13412 13413 13414,https://en.wikipedia.org:443/wiki/Sports_in_Venezuela:1528,https://www.theatlantic.com:443/magazine/archive/2023/01/homelessness-affordable-housing-crisis-democrats-causes/672224/:917 