otto otto-0 1206 https://en.wikipedia.org:443/wiki/Southern_United_States:8158,https://en.wikipedia.org:443/wiki/Greenhouse_gas_emissions_by_the_United_States:2892,https://en.wikipedia.org:443/wiki/American_Revolution:11132,https://en.wikipedia.org:443/wiki/List_of_mountains_of_the_United_States:7032,https://www.nytimes.com:443/section/realestate:461,http://www.redsoxdiehard.com:80/players/unifnums.html:3666 3667,https://en.wikipedia.org:443/wiki/Colonial_history_of_the_United_States:9273,https://en.wikipedia.org:443/wiki/Literacy_in_the_United_States:4085,https://en.wikipedia.org:443/wiki/IndyCar_Series:4896 4897,https://en.wikipedia.org:443/wiki/Spanish%E2%80%93American_War:10060,https://en.wikipedia.org:443/wiki/Olympic_Games:8565 8566,https://en.wikipedia.org:443/wiki/Summer_Olympic_Games:4159,https://en.wikipedia.org:443/wiki/Cold_War:13675 13676,https://www.azcentral.com:443/story/sports/nfl/cardinals/2015/09/06/nfls-dynasties-decade/71605710/:524 525,https://en.wikipedia.org:443/wiki/U.S._state:3576,http://www.britskelisty.cz:80/9808/19980821h.html:803,https://en.wikipedia.org:443/wiki/Bureau_of_Diplomatic_Security:2957,https://en.wikipedia.org:443/wiki/War_in_Afghanistan_(2001%E2%80%932021):13619 