pack pack-0 2743 https://en.wikipedia.org:443/wiki/Town_meeting:2013,https://www.nytimes.com:443/live/2024/05/04/us/college-campus-protests:1996,https://en.wikipedia.org:443/wiki/College_athletics_in_the_United_States:3439,https://cooking.nytimes.com:443/recipes/1022283-country-panzanella-with-watermelon-dressing:1149,https://www.indycar.com:443/news/2022/02/02-22-internationaltv:359,https://www.nytimes.com:443/interactive/2024/03/28/travel/things-to-do-mumbai.html:1003,https://www.theguardian.com:443/us-news/2019/dec/29/synagogue-stabbings-three-hurt-in-monsey-attack-say-reports:445,https://en.wikipedia.org:443/wiki/Terrorism_in_the_United_States:8542 8543,https://www.nytimes.com:443/section/fashion?page=9:1682,https://cooking.nytimes.com:443/recipes/1023559-ina-gartens-bourbon-chocolate-pecan-pie:1111,https://en.wikipedia.org:443/wiki/Prescription_drug_prices_in_the_United_States:4242 4243,https://en.wikipedia.org:443/wiki/New_England:6896,https://en.wikipedia.org:443/wiki/IndyCar_Series:5023 5024,https://www.nytimes.com:443/2024/04/01/fashion/craft-handmade-umbrella-italy.html:632,https://en.wikipedia.org:443/wiki/Vietnam_War:12517,https://cooking.nytimes.com:443/recipes/1019333-millionaires-shortbread:1128 1129 1130,https://www.nytimes.com:443/video:313,https://cooking.nytimes.com:443/recipes/1016295-mint-julep:1104,https://en.wikipedia.org:443/wiki/History_of_the_United_States_(2008%E2%80%93present):7871,https://en.wikipedia.org:443/wiki/Ice_hockey:5228,https://nevadasportsnet.com:443/news/reporters/mw-football-attendance-analysis-biggest-risers-and-fallers-year-over-year:207,https://en.wikipedia.org:443/wiki/Sports_in_Belize:774,https://en.wikipedia.org:443/wiki/Summer_Olympic_Games:4186,https://en.wikipedia.org:443/wiki/Boston:9571 9572,https://www.azcentral.com:443/story/sports/nfl/cardinals/2015/09/06/nfls-dynasties-decade/71605710/:526,https://www.nytimes.com:443/2024/04/24/us/palestinian-family-gaza-war-death.html:1145,https://www.packers.com:443/community/shareholders:426,https://www.nytimes.com:443/wirecutter/:2065 2066 2067 2068 2069,https://en.wikipedia.org:443/wiki/Culture_of_the_United_States:7853,https://en.wikipedia.org:443/wiki/Snowboarding:2611,https://en.wikipedia.org:443/wiki/United_States_Polo_Association:971,https://en.wikipedia.org:443/wiki/Supreme_Court_of_the_United_States:11579 11582 11583 11584 11585 11586 11587 11588,https://en.wikipedia.org:443/wiki/Henley_Royal_Regatta:2448,https://en.wikipedia.org:443/wiki/Constitution_of_the_United_States:8998,https://en.wikipedia.org:443/wiki/Environmental_issues_in_the_United_States:2669,https://www.nytimes.com:443/2024/04/29/realestate/renters-astoria-queens.html:537,https://cooking.nytimes.com:443/recipes/1024469-tomato-cheddar-toasts:1027 