packer packer-0 1485 https://www.azcentral.com:443/story/sports/nfl/cardinals/2015/09/06/nfls-dynasties-decade/71605710/:527,https://www.sbnation.com:443/2014/10/5/6916597/nba-new-tv-deal-espn-turner-24-billion:503,https://en.wikipedia.org:443/wiki/Fenway_Park:6631 6632 6633 6634 6635 6636 6637 6638 6639,https://cooking.nytimes.com:443/:1794,https://en.wikipedia.org:443/wiki/2023_Big_Ten_Conference_football_season:3856,https://en.wikipedia.org:443/wiki/New_England_Patriots:8719 8720 8721 8722 8723,https://cooking.nytimes.com:443/recipes/1019333-millionaires-shortbread:1131,https://www.nfl.com:443/standings/:573 574 575 576,https://www.nfl.com:443/teams/seattle-seahawks/:499 500,https://en.wikipedia.org:443/wiki/National_Football_League:5178 5179 5180 5181 5182 5183 5184 5185 5186 5187 5188 5189 5190,https://en.wikipedia.org:443/wiki/Agriculture_in_the_United_States:3928 3929,https://www.nfl.com:443/standings/conference/2023/REG:529 530 531 532,https://www.nfl.com:443/teams/baltimore-ravens/:503 504,https://en.wikipedia.org:443/wiki/Major_professional_sports_teams_of_the_United_States_and_Canada:1365 1366,https://www.nfl.com:443/teams/philadelphia-eagles/:507 508,https://www.packers.com:443/community/shareholders:427 428 429 430 431 432 433 434 435 436 437 438 439 440 441 442 443 444 445 446 447 448 449,https://www.nfl.com:443/teams/indianapolis-colts/:503 504,https://en.wikipedia.org:443/wiki/United_States_men%27s_national_soccer_team:5896,https://en.wikipedia.org:443/wiki/NBA:5101 