pat pat-0 3878 https://en.wikipedia.org:443/wiki/Beach_volleyball:3251,https://www.cookingchanneltv.com:443/recipes/tia-mowry/spaghetti-and-turkey-meatballs-2803024:595 596,https://www.espn.com:443/college-football/boxscore/_/gameId/401520200:272,https://www.espn.com:443/college-football/boxscore/_/gameId/401520265:255,https://cooking.nytimes.com:443/recipes/1025421-creole-broiled-shrimp-and-baby-corn:728,https://en.wikipedia.org:443/wiki/Fenway_Park:6960 6961,https://en.wikipedia.org:443/wiki/Prescription_drug_prices_in_the_United_States:4269,https://en.wikipedia.org:443/wiki/Major_Arena_Soccer_League:1864,https://www.azcentral.com:443/story/sports/nfl/cardinals/2015/09/06/nfls-dynasties-decade/71605710/:535,https://www.nytimes.com:443/section/fashion/weddings:702,https://www.nytimes.com:443/2024/04/24/us/palestinian-family-gaza-war-death.html:1177,https://cooking.nytimes.com:443/recipes/1023559-ina-gartens-bourbon-chocolate-pecan-pie:1138,https://www.patriots.com:443/cheerleaders/pat-patriot:519 520 521 522 523 524 525 526 527,https://en.wikipedia.org:443/wiki/USA_Baseball:4418 4419 4420,https://en.wikipedia.org:443/wiki/Louise_Suggs:888 889 890 891,https://www.nytimes.com:443/section/obituaries:496,https://en.wikipedia.org:443/wiki/Sports_in_Kentucky:3280 3281,https://www.nytimes.com:443/2024/05/03/opinion/campus-protests-israel-gaza.html:1489 1490 1491 1492,https://en.wikipedia.org:443/wiki/Fox_Sports_1:3508,https://en.wikipedia.org:443/wiki/Drug_Enforcement_Administration:4691,https://www.nytimes.com:443/2024/04/24/podcasts/laufey-gen-zs-jazz-icon-sings-for-anxious-generation.html:1323 1324 1325,https://en.wikipedia.org:443/wiki/Supreme_Court_of_the_United_States:11683 11684,https://en.wikipedia.org:443/wiki/MLB_Network:3377,https://en.wikipedia.org:443/wiki/New_England_Patriots:8830 8831 8832 8833 8834 8835 8836 8837 8838 8839 8840 8841 8842 8843 8844 8845 8846 8847 9448 9449 9450 9451 9452 9453 9454 9455 9456 9457,https://en.wikipedia.org:443/wiki/Jack_Nicklaus:6510,https://cooking.nytimes.com:443/recipes/1013611-rhubarb-upside-down-cake:1282 1283,https://www.nytimes.com:443/spotlight/podcasts:1409 1410 1411 1412 1413 1414,https://www.espn.com:443/college-football/boxscore/_/gameId/401520324:302,https://www.espn.com:443/college-football/boxscore/_/gameId/401520383:258 259,https://www.nytimes.com:443/2024/05/04/opinion/trump-second-term-illiberalism.html:720,https://www.nytimes.com:443/spotlight/podcasts?page=6:2184 2185 2186 2187 2188 2189 2190 2191 2192 2193,https://en.wikipedia.org:443/wiki/2023_Big_Ten_Conference_football_season:3888 3889 3890 3891,https://www.nytimes.com:443/section/well:378,https://www.sbnation.com:443/2014/10/5/6916597/nba-new-tv-deal-espn-turner-24-billion:509 510,https://www.espn.com:443/college-football/boxscore/_/gameId/401520417:282,https://www.patriots.com:443/news/ben-coates-elected-to-patriots-hall-of-fame-140866:1178 1179 1180,https://commons.wikimedia.org:443/wiki/Category:War_in_Afghanistan_(2001%E2%80%932021):1218 1219,https://www.patriots.com:443/news/check-out-the-2016-patriots-color-rush-jerseys-270621:958 959 960,https://www.patriots.com:443/team/players-roster/:642 643,https://en.wikipedia.org:443/wiki/MLS:7424 7425,https://www.espn.com:443/college-football/boxscore/_/gameId/401520155:264 265 266,https://www.nytimes.com:443/section/style:430,http://www.redsoxdiehard.com:80/players/unifnums.html:3693 3694 3695 3696 3697 3698,https://commons.wikimedia.org:443/wiki/Category:Sports_in_the_United_States:685,https://en.wikipedia.org:443/wiki/Portal:Current_events:2078,https://en.wikipedia.org:443/wiki/Francis_Olympic_Field:1603,https://www.forbes.com:443/sites/greatspeculations/2019/09/22/a-strange-new-world-economic-slowdown-liquidity-issues/:542,https://www.forbes.com:443/sites/mikeozanian/2019/05/10/david-beckham-reportedly-buys-stake-in-his-company-at-150-million-valuation/:183 