pave pave-0 949 https://en.wikipedia.org:443/wiki/United_States_Olympic_%26_Paralympic_Committee:2697,https://en.wikipedia.org:443/wiki/Fenway_Park:6992,https://www.nytimes.com:443/2024/05/04/opinion/trump-second-term-illiberalism.html:724,https://en.wikipedia.org:443/wiki/Basketball_in_the_United_States:875,https://en.wikipedia.org:443/wiki/History_of_the_United_States_(1945%E2%80%931964):6107,https://www.tlc.com:443/parenting/are-men-or-women-more-likely-to-want-kids-study:504,https://www.azcentral.com:443/story/sports/nfl/cardinals/2015/09/06/nfls-dynasties-decade/71605710/:545,https://en.wikipedia.org:443/wiki/War_in_Afghanistan_(2001%E2%80%932021):14006 14007,https://www.foodnetwork.com:443/:633,https://en.wikipedia.org:443/wiki/Cold_War:13997 13998 13999 14000 14003,https://en.wikipedia.org:443/wiki/Supreme_Court_of_the_United_States:11701 11702,https://en.wikipedia.org:443/wiki/NBA:5132,https://en.wikipedia.org:443/wiki/The_Washington_Post:4691 