phoenix phoenix-0 2861 https://en.wikipedia.org:443/wiki/Sports_in_Arizona:899 900 901 902 903 904 905 906 907 908 909 910 911 912 913 914 915 916 917 918 919 920 921 922,https://en.wikipedia.org:443/wiki/Agriculture_in_the_United_States:4043,https://en.wikipedia.org:443/wiki/Boston:9905 9906 9907 9908,https://www.independent.co.uk:443/sport/us-sport/nba/draft-2020-what-time-start-uk-b1725070.html:567 568 569 570,https://en.wikipedia.org:443/wiki/List_of_mountains_of_the_United_States:8558 8559,https://en.wikipedia.org:443/wiki/National_League_(baseball):2691,https://nirsa.net:443/nirsa/:296,https://en.wikipedia.org:443/wiki/Terrorism_in_the_United_States:8803 8804,https://en.wikipedia.org:443/wiki/Baseball:6869,https://en.wikipedia.org:443/wiki/Arkansas_River:1818,https://en.wikipedia.org:443/wiki/Americans:6405 6406,https://en.wikipedia.org:443/wiki/Spanish%E2%80%93American_War:10552,https://en.wikipedia.org:443/wiki/Major_professional_sports_teams_of_the_United_States_and_Canada:1422 1423 1424,https://en.wikipedia.org:443/wiki/NBA:5220 5221 5222 5223 5224 5225 5226 5227 5228 5229,https://en.wikipedia.org:443/wiki/Cold_War:14314,https://www.nytimes.com:443/video/last-word:799 800,https://en.wikipedia.org:443/wiki/Drug_Enforcement_Administration:4770,https://en.wikipedia.org:443/wiki/Bodybuilding_in_the_United_States:785 786 787 788,https://www.azcentral.com:443/story/sports/nfl/cardinals/2015/09/06/nfls-dynasties-decade/71605710/:549,https://en.wikipedia.org:443/wiki/Fenway_Park:7113,https://www.sbnation.com:443/2014/10/5/6916597/nba-new-tv-deal-espn-turner-24-billion:529,https://en.wikipedia.org:443/wiki/History_of_the_United_States_(2008%E2%80%93present):8186,https://en.wikipedia.org:443/wiki/American_League:1699,https://en.wikipedia.org:443/wiki/Education_in_the_United_States:7465,https://en.wikipedia.org:443/wiki/U.S._Immigration_and_Customs_Enforcement:4663,https://en.wikipedia.org:443/wiki/New_England_Patriots:9572 9573,https://en.wikipedia.org:443/wiki/War_in_Afghanistan_(2001%E2%80%932021):14290 14291 14292,https://en.wikipedia.org:443/wiki/List_of_current_United_States_district_judges:8495 8496 8497 8498 8499 8500 8501 8502 8503 8504 8505 8506 8507 8508 8509,https://en.wikipedia.org:443/wiki/New_England:7077,https://www.nytimes.com:443/article/senate-races-2024-election.html:770,https://en.wikipedia.org:443/wiki/United_States_Aquatic_Sports:671,https://en.wikipedia.org:443/wiki/WNBA%27s_Top_15_Team:525 526 527,https://en.wikipedia.org:443/wiki/United_States_Minor_Outlying_Islands:1323,https://en.wikipedia.org:443/wiki/Louise_Suggs:935,https://en.wikipedia.org:443/wiki/Vietnam_War:13077 13078 13079 13080,https://en.wikipedia.org:443/wiki/Major_Arena_Soccer_League:1881 1882,https://en.wikipedia.org:443/wiki/IndyCar_Series:5184 5185 5186 5187 5188 5189 5190,https://en.wikipedia.org:443/wiki/Mayoralty_in_the_United_States:580 