pittsburgh pittsburgh-0 3779 https://www.nfl.com:443/standings/conference/2023/REG:556 557 558,https://meta.wikimedia.org:443/wiki/Category:United_States:335,https://www.nfl.com:443/teams/seattle-seahawks/:511 512,https://en.wikipedia.org:443/wiki/Fox_Sports_1:3574,https://en.wikipedia.org:443/wiki/Consolidated_city-county:2592 2593 2594 2595 2596,https://en.wikipedia.org:443/wiki/Boston_Red_Sox:7925 7926 7927 7928 7929 7930 7931 7932,https://en.wikipedia.org:443/wiki/American_League:1709,https://en.wikipedia.org:443/wiki/Constitution_of_the_United_States:9352,https://en.wikipedia.org:443/wiki/National_League_(baseball):2711 2712 2713 2714 2715 2716 2717 2718 2719 2720 2721 2722 2723 2724,https://www.nfl.com:443/standings/:618 619 620,https://en.wikipedia.org:443/wiki/Sports_in_India:12131,https://en.wikipedia.org:443/wiki/Sports_in_the_United_States:3555,https://en.wikipedia.org:443/wiki/Ice_hockey:5508,https://en.wikipedia.org:443/wiki/Spectrum_Sports:690,https://en.wikipedia.org:443/wiki/2023_Big_Ten_Conference_football_season:4032 4033 4034 4035 4036 4037 4038 4039,https://en.wikipedia.org:443/wiki/Professional_boxer:1484,https://commons.wikimedia.org:443/wiki/Category:War_in_Afghanistan_(2001%E2%80%932021):1234 1235,https://en.wikipedia.org:443/wiki/Northern_United_States:529,https://en.wikipedia.org:443/wiki/The_Washington_Post:4770 4771,https://www.sbnation.com:443/2014/10/5/6916597/nba-new-tv-deal-espn-turner-24-billion:533 534,https://en.wikipedia.org:443/wiki/National_Football_League:5358 5359 5360 5361 5362,https://en.wikipedia.org:443/wiki/Soccer_in_the_United_States:6425,https://en.wikipedia.org:443/wiki/Major_professional_sports_teams_of_the_United_States_and_Canada:1430 1431 1432 1433,https://en.wikipedia.org:443/wiki/MLB_Network:3449 3450,https://www.nfl.com:443/teams/philadelphia-eagles/:532 533,https://en.wikipedia.org:443/wiki/Spanish%E2%80%93American_War:10582 10583,https://www.nfl.com:443/teams/baltimore-ravens/:518 519,https://en.wikipedia.org:443/wiki/Sports_in_Washington:3300 3301 3302,https://en.wikipedia.org:443/wiki/Terrorism_in_the_United_States:8847 8848 8849 8850 8851 8852 8853 8854 8855 8856 8857,https://en.wikipedia.org:443/wiki/Disc_golf_in_the_United_States:817 818,https://en.wikipedia.org:443/wiki/Sports_in_Poland:1828,https://www.azcentral.com:443/story/sports/nfl/cardinals/2015/09/06/nfls-dynasties-decade/71605710/:551 552,https://www.theguardian.com:443/sport/2004/jul/27/cricket.comment:579,https://en.wikipedia.org:443/wiki/MLS:7491,https://en.wikipedia.org:443/wiki/Boston:9926 9927 9928 9929,https://en.wikipedia.org:443/wiki/American_Revolution:11805,https://en.wikipedia.org:443/wiki/Fenway_Park:7149 7150 7151 7152 7153 7154 7155 7156 7157,https://www.nytimes.com:443/section/t-magazine:758,https://en.wikipedia.org:443/wiki/Agriculture_in_the_United_States:4055,https://en.wikipedia.org:443/wiki/Culture_of_the_United_States:8130,https://en.wikipedia.org:443/wiki/Baseball:7045,https://en.wikipedia.org:443/wiki/List_of_current_United_States_district_judges:8523 8524 8525 8526 8527 8528 8529 8530 8531 8532 8533 8534 8535 8536,https://en.wikipedia.org:443/wiki/History_of_the_United_States_(2008%E2%80%93present):8208,https://bolavip.com:443/en:640 641,https://en.wikipedia.org:443/wiki/Literacy_in_the_United_States:4308 4309,https://en.wikipedia.org:443/wiki/United_States_Aquatic_Sports:675,https://en.wikipedia.org:443/wiki/Articles_of_Confederation:5390,https://www.nfl.com:443/teams/indianapolis-colts/:519 520,https://en.wikipedia.org:443/wiki/New_England_Patriots:9611 9612 9613 9614 9615 9616 9617 9618 9619 9620 9621 9622 9623 9624 9625 9626 9627 9628 9629 9630 9631 9632 9633 9634 9635 9636 9637 9638,https://en.wikipedia.org:443/wiki/Antisemitism_in_the_United_States:3320 3321 3322 3323 3324 3325 3326 3327 