pop pop-0 11801 https://www.nytimes.com:443/2024/05/03/opinion/us-africa-niger-chad.html:510 511,https://en.wikipedia.org:443/wiki/Baseball:7340 7341,https://www.nytimes.com:443/2024/04/01/fashion/craft-handmade-umbrella-italy.html:673 674,https://www.sportsbusinessjournal.com:443/Articles/2023/10/23/mls-sets-attendance-record-for-season:601 602 603 604 605 606 607,https://en.wikipedia.org:443/wiki/Ice_hockey:5855,https://www.nytimes.com:443/2024/05/01/us/free-speech-campus-protests.html:595 596,https://www.nytimes.com:443/2024/05/02/us/blast-mortar-brain-injury-military.html:924 925,https://en.wikipedia.org:443/wiki/Boston:10047 10049 10050,https://www.nytimes.com:443/2023/09/07/climate/climate-forward-event.html:406 407,https://www.patriots.com:443/news/check-out-the-2016-patriots-color-rush-jerseys-270621:1006,https://www.nytimes.com:443/2024/04/17/opinion/venezuela-oil-sanctions.html:507 508,https://www.nytimes.com:443/interactive/2024/04/25/nyregion/trump-trial-hush-money-payments.html:350 351,https://www.nytimes.com:443/2024/05/03/us/abortion-rights-missouri-south-dakota.html:456 457,https://www.nytimes.com:443/2024/05/03/theater/the-miser-review-brooklyn.html:374 375 376,https://www.nytimes.com:443/2024/05/04/style/nonalcoholic-drinks-kids-mocktail.html:569 570,https://en.wikipedia.org:443/wiki/Sports_in_South_Korea:1621,https://www.nytimes.com:443/live/2024/05/04/us/college-campus-protests:2163 2164,https://www.sportsbusinessjournal.com:443/Subscribe/Subscription-Landing.aspx:664 665 666 667 668 669,https://www.nytimes.com:443/2024/03/30/opinion/abortion-drug-supreme-court.html:552 553,https://www.nytimes.com:443/2024/05/03/style/modern-love-we-didnt-know-it-was-the-last-time.html:552 553,https://www.nytimes.com:443/2024/05/03/opinion/nuclear-power-energy.html:551 552,https://www.nytimes.com:443/2024/05/03/world/europe/campus-protests-rorschach-test.html:841 842,https://www.nytimes.com:443/2009/01/05/opinion/05krugman.html:392 393,https://www.nytimes.com:443/section/fashion/weddings:733,https://www.azcentral.com:443/story/sports/nfl/cardinals/2015/09/06/nfls-dynasties-decade/71605710/:563,https://www.nytimes.com:443/2024/05/02/arts/music/tiktok-universal-music-deal.html:428 429 430 431,https://www.tlc.com:443/parenting/are-men-or-women-more-likely-to-want-kids-study:529,https://en.wikipedia.org:443/wiki/MLB_Network:3493,https://www.nytimes.com:443/2024/04/10/style/rishi-sunak-adidas-sambas.html:380 381 382,https://www.nytimes.com:443/2023/11/29/business/dealbook/kamala-harris-biden-voters.html:475 476,https://www.nytimes.com:443/interactive/2024/02/22/crosswords/puzzle-personality.html:221 222,https://www.nytimes.com:443/2024/05/04/business/energy-environment/tesla-electric-vehicles-supercharger.html:760 761,https://www.nytimes.com:443/interactive/2024/02/01/magazine/israel-founding-palestinian-conflict.html:1279 1280,https://www.nytimes.com:443/2024/05/02/style/central-park-hat-luncheon.html:635 636,https://en.wikipedia.org:443/wiki/Consolidated_city-county:2623,https://www.nytimes.com:443/2024/05/04/world/europe/sadiq-khan-london-mayor-results.html:534 535,https://www.businessinsider.com:443/real-estate:951 952,https://www.nytimes.com:443/2023/11/21/dining/restaurant-review-bangkok-supper-club.html?rref=collection%2Fcollection%2Frestaurant-guide:733 734,https://www.nytimes.com:443/2017/11/24/opinion/vietnam-the-chemical-war.html?mtrref=www.google.ca&amp;assetType=opinion:731 732,https://www.nytimes.com:443/2024/05/04/opinion/fat-activist-freedom-health.html:609 610,https://www.nytimes.com:443/2024/05/04/world/europe/uk-rishi-sunak-conservatives-elections.html:694 695,https://en.wikipedia.org:443/wiki/Maternal_mortality_in_the_United_States:3531,https://www.nytimes.com:443/2024/04/30/learning/graphs.html:236 237,https://spoiler.bolavip.com:443/en/celebrities/ryan-gosling-net-worth:385,https://www.nytimes.com:443/2023/11/21/dining/restaurant-review-bangkok-supper-club.html:733 734,https://www.nytimes.com:443/2022/02/11/sports/horse-racing/medina-spirit-kentucky-derby-necropsy.html?searchResultPosition=2:491 492,https://www.nytimes.com:443/spotlight/podcasts:1479 1480 1481,https://www.nytimes.com:443/2024/05/04/opinion/chronic-illness-vaccines-long-covid.html:453 454,https://en.wikipedia.org:443/wiki/West_Coast_of_the_United_States:2257,https://www.nytimes.com:443/interactive/2023/us/politics/presidential-candidates-2024.html:443 444,https://www.nytimes.com:443/2024/04/12/fashion/weddings/elena-bauer-joshua-fagel-wedding.html:541 542,https://www.nytimes.com:443/2024/04/22/us/politics/israel-gaza-hamas-war.html:1188 1189,https://www.nytimes.com:443/2014/11/11/technology/obama-net-neutrality-fcc.html:565 566,https://www.nytimes.com:443/2019/06/19/us/newsom-native-american-apology.html:616 617,https://www.nytimes.com:443/2024/04/29/learning/what-should-be-done-about-the-gender-pay-gap-in-sports.html:466 467,https://www.nytimes.com:443/article/trump-hush-money-trial-transcripts.html:263 264,https://www.nytimes.com:443/2024/05/04/nyregion/columbia-protests-arrest-agitators-israel.html:922 923,https://www.nytimes.com:443/2019/01/31/opinion/letters/letters-to-editor-new-york-times-women.html:414 415,https://www.nytimes.com:443/spotlight/podcasts?page=6:2280 2281 2282 2283 2284,https://www.nytimes.com:443/2024/04/27/opinion/left-right-happiness.html:486 487,https://www.businessinsider.com:443/s:470,https://www.nytimes.com:443/2024/04/02/world/middleeast/gaza-al-shifa-hospital.html:872 873,https://www.nytimes.com:443/section/arts/music:338 339 340,https://www.nytimes.com:443/2024/05/03/opinion/campus-protests-israel-gaza.html:1621 1622,https://www.sportsbusinessjournal.com:443/Archive/Sections/International.aspx:742 743 744 745 746 747,https://www.nytimes.com:443/2024/04/29/realestate/renters-astoria-queens.html:561 562,https://www.nytimes.com:443/2024/05/03/nyregion/trump-trial-hope-hicks-takeaways.html:554 555,https://www.sportsbusinessjournal.com:443/Daily/Issues/2024/04/29.aspx:688 689 690 691 692 693 694,https://www.nytimes.com:443/2024/04/24/podcasts/laufey-gen-zs-jazz-icon-sings-for-anxious-generation.html:1382 1383 1384 1385 1386 1387 1388,https://www.nytimes.com:443/2024/05/04/opinion/trump-second-term-illiberalism.html:757 758,https://www.sportsbusinessjournal.com:443/Journal/Issues/2024/03/04.aspx:716 717 718 719 720 721 722,https://www.nytimes.com:443/2024/04/24/us/palestinian-family-gaza-war-death.html:1222 1223,https://en.wikipedia.org:443/wiki/History_of_the_United_States_(1945%E2%80%931964):6329 6330,https://www.nytimes.com:443/interactive/2024/03/28/travel/things-to-do-mumbai.html:1066 1067,https://www.nytimes.com:443/2024/05/02/business/horse-racing-deaths-kentucky-derby.html:980 981,https://www.nytimes.com:443/live/2024/01/19/world/israel-hamas-news/a-un-official-says-israeli-treatment-of-detainees-may-amount-to-torture?smid=url-share:2619 2620,https://www.nytimes.com:443/2023/04/14/us/politics/mike-pompeo-president-2024.html:410 411,https://www.nytimes.com:443/2024/05/02/opinion/israel-saudi-arabia.html:787 788,https://www.nytimes.com:443/interactive/2024/05/03/us/ucla-protests-encampment-violence.html:767 768,https://www.nytimes.com:443/2024/05/03/arts/television/jimmy-kimmel-donald-trump-trial.html:308 309,https://www.nytimes.com:443/2024/04/14/fashion/vintage-watches-reissued.html:593 594,https://en.wikipedia.org:443/wiki/Indiana:7640 7641 7642 7645,https://www.nytimes.com:443/2017/06/26/health/undocumented-immigrants-health-care.html:815 816,https://www.nytimes.com:443/2024/04/27/us/politics/trump-trial-fact-check.html:573 574,https://en.wikipedia.org:443/wiki/Spanish%E2%80%93American_War:10712,https://www.nytimes.com:443/interactive/2021/07/07/opinion/minimum-corporate-tax.html:470 471,https://www.tlc.com:443/:295,https://www.nytimes.com:443/2024/05/03/arts/design/stanley-stellar-frieze-photography.html:605 606,https://www.nytimes.com:443/2005/09/18/opinion/conventional-wisdom.html:390 391,https://en.wikipedia.org:443/wiki/Cold_War:14672,https://www.nytimes.com:443/section/corrections?page=5:720,https://www.nytimes.com:443/live/2024/05/04/us/biden-trump-campaign:482 483,https://cooking.nytimes.com:443/recipes/1019333-millionaires-shortbread:1204,https://www.nytimes.com:443/2024/05/03/climate/nasa-satellites-data.html:702 703,https://www.nytimes.com:443/section/reader-center:463,https://www.nytimes.com:443/live/2024/05/02/us/biden-trump-campaign:1775 1776,https://www.nytimes.com:443/2024/05/02/arts/design/petrit-halilaj-kosovo-met-roof.html:806 807,https://www.nytimes.com:443/spotlight/pop-culture:143 144 145 146 147 148,https://www.nytimes.com:443/2022/11/03/insider/what-to-expect-at-this-years-crucial-climate-summit.html:334 335,https://www.nytimes.com:443/article/wedding-feature-submission-form.html:411 412,https://www.nytimes.com:443/2024/05/04/us/kentucky-derby-race-photos.html:322 323,https://www.nytimes.com:443/article/senate-races-2024-election.html:806 807,https://en.wikipedia.org:443/wiki/Americans:6473 6474 6475 6476 6477 6478,https://www.nytimes.com:443/section/style:452,https://www.nytimes.com:443/2024/04/26/us/politics/kristi-noem-dog-killing.html:448 449,https://www.nytimes.com:443/2024/05/03/books/cj-sansom-dead.html:560 561,https://en.wikipedia.org:443/wiki/Boston_Red_Sox:8110,https://www.nytimes.com:443/2024/05/02/us/politics/abortion-ballot-measures-2024.html:807 808,https://www.nytimes.com:443/video/op-docs:211,https://www.nytimes.com:443/section/food:384 385,https://www.nytimes.com:443/section/arts/dance:309,https://en.wikipedia.org:443/wiki/Outline_of_the_history_of_the_United_States:3792,https://www.nytimes.com:443/live/2024/05/04/world/israel-gaza-war-hamas:1326 1327,https://www.sportsbusinessjournal.com:443/Journal/Issues/2012/04/02/Media/Fox-channel.aspx:888 889 890 891 892 893 894,https://www.nytimes.com:443/2024/05/04/world/europe/russia-soldiers-women.html:761 762,https://en.wikipedia.org:443/wiki/Boswell:467,https://www.nytimes.com:443/2024/05/02/learning/word-of-the-day-rapport.html:243 244,https://www.nytimes.com:443/es/:942 943,https://www.nytimes.com:443/2024/05/04/opinion/alexandria-ocasio-cortez.html:943 944,https://www.nytimes.com:443/:631 632,https://www.nytimes.com:443/interactive/2024/05/03/opinion/global-billionaires-tax.html:642 643 644,https://en.wikipedia.org:443/wiki/Sports_in_India:12434,https://www.nytimes.com:443/2024/05/04/nyregion/trump-trial-scandals-testimony.html:912 913,https://www.nytimes.com:443/interactive/2024/nyregion/trump-manhattan-criminal-trial-witnesses.html:564 565,https://www.nytimes.com:443/2021/08/16/world/asia/afghanistan-taliban-video.html:595 596,https://www.nytimes.com:443/2024/04/20/health/seniors-home-equity-mortgages.html:634 635,https://www.nytimes.com:443/2024/04/18/t-magazine/chalet-des-iles-paris-restaurant.html:922 923,https://www.nytimes.com:443/2021/07/07/style/how-the-french-manicure-made-its-comeback.html:538 539,https://www.nytimes.com:443/2024/05/04/us/politics/trump-biden-campaign-young-voters.html:615 616,https://en.wikipedia.org:443/wiki/Culture_of_the_United_States:8250 8251 8252 8253,https://www.nytimes.com:443/2024/04/18/nyregion/trump-trial-jury-hush-money.html:450 451,https://www.nytimes.com:443/2024/05/04/world/middleeast/cindy-mccain-gaza-famine.html:466 467,https://www.nytimes.com:443/live/2024/05/03/world/israel-gaza-war-hamas:1314 1315,https://www.nytimes.com:443/2013/01/12/opinion/is-this-the-afghan-wars-last-chapter.html?_r=3&amp;:296 297,https://www.nytimes.com:443/2024/05/04/opinion/gaza-child-deaths.html:302 303,https://www.nytimes.com:443/2024/05/01/magazine/catholic-cousin-annulment-ethics.html:522 523,https://cooking.nytimes.com:443/recipes/1024469-tomato-cheddar-toasts:1088,https://www.nytimes.com:443/2024/05/04/us/politics/biden-insulin-voters-drugs.html:702 703 