premier premier-0 5159 https://en.wikipedia.org:443/wiki/Henley_Royal_Regatta:2590,https://en.wikipedia.org:443/wiki/MLB_Network:3522 3523 3524 3525 3526 3527 3528 3529 3530 3531 3532 3533 3534 3535,https://www.saturdaydownsouth.com:443/sports/ranking-top-25-rivalries-college-sports-2023/:1239,https://en.wikipedia.org:443/wiki/Basketball_in_the_United_States:924 925 926 927,https://en.wikipedia.org:443/wiki/New_England:7365,https://en.wikipedia.org:443/wiki/Sports_teams_in_Virginia:847 848 849 850,https://www.nytimes.com:443/2024/05/02/business/horse-racing-deaths-kentucky-derby.html:1000,https://en.wikipedia.org:443/wiki/Baseball:7442 7443,https://www.ghanaweb.com:443/GhanaHomePage/SportsArchive/Basketball-is-the-biggest-sporting-discipline-in-Ghana-after-football-and-boxing-Yaw-Sakyi-927250:227,https://en.wikipedia.org:443/wiki/Sports_in_Ghana:1990,https://en.wikipedia.org:443/wiki/Fenway_Park:7361 7362,https://en.wikipedia.org:443/wiki/American_Sign_Language:5090,https://en.wikipedia.org:443/wiki/Sports_in_Brunei:1620,https://en.wikipedia.org:443/wiki/Ice_hockey:5922 5923,https://spoiler.bolavip.com:443/en/celebrities/ryan-gosling-net-worth:389 390,https://en.wikipedia.org:443/wiki/Boston_Red_Sox:8197 8198,https://bolavip.com:443/en/info/terms-conditions:445,https://en.wikipedia.org:443/wiki/Cold_War:14929 14930 14931 14932 14933 14934 14935 14936,https://en.wikipedia.org:443/wiki/Vietnam_War:13474 13475,https://en.wikipedia.org:443/wiki/Snowboarding:2824,https://www.azcentral.com:443/story/sports/nfl/cardinals/2015/09/06/nfls-dynasties-decade/71605710/:564,https://en.wikipedia.org:443/wiki/Soccer_in_the_United_States:6673 6674 6675 6676 6677 6678 6679 6680 6681 6682 6683 6684 6685 6686 6687 6688 6689 6690 6691 6692 6693 6694 6695 6696 6697 6698 6699 6700 6701 6702 6703 6704,https://en.wikipedia.org:443/wiki/Sports_in_Uzbekistan:636,https://www.sportsbusinessjournal.com:443/Journal/Issues/2024/03/04.aspx:729,https://www.nytimes.com:443/2024/05/02/opinion/israel-saudi-arabia.html:801,https://en.wikipedia.org:443/wiki/Iroquois:11395,https://www.nytimes.com:443/section/sports:195 196,https://www.nytimes.com:443/2022/02/11/sports/horse-racing/medina-spirit-kentucky-derby-necropsy.html?searchResultPosition=2:499,https://en.wikipedia.org:443/wiki/Major_Arena_Soccer_League:1942 1943 1944 1945 1946,https://en.wikipedia.org:443/wiki/Fashion_in_the_United_States:1473,https://en.wikipedia.org:443/wiki/USA_Baseball:4667 4668 4669 4670 4671 4672 4673,https://www.indycar.com:443/news/2022/02/02-22-internationaltv:393 394,https://en.wikipedia.org:443/wiki/Spanish%E2%80%93American_War:10868,https://www.sbnation.com:443/2014/10/5/6916597/nba-new-tv-deal-espn-turner-24-billion:553,https://www.nytimes.com:443/section/arts/dance:313 314 315,https://en.wikipedia.org:443/wiki/IndyCar_Series:5394,https://en.wikipedia.org:443/wiki/Category:Use_mdy_dates_from_October_2023:754,https://en.wikipedia.org:443/wiki/Sports_in_the_United_States:3705 3706 3707,https://en.wikipedia.org:443/wiki/Sports_in_South_Korea:1653,https://en.wikipedia.org:443/wiki/Sports_in_Kentucky:3403 3404 3405 3406,https://en.wikipedia.org:443/wiki/Sports_in_Syria:1372,https://bolavip.com:443/en/info/privacy:532,https://en.wikipedia.org:443/wiki/Sports_in_Maryland:4069 4070 4071 4072 4073 4074 4075 4076 4077 4078 4079 4080 4081 4082,https://en.wikipedia.org:443/wiki/Professional_boxer:1533,https://en.wikipedia.org:443/wiki/Sports_in_Washington:3492,https://en.wikipedia.org:443/wiki/Carlos_Bocanegra:2062 2063 2064 2065 2066 2067 2068 2069,https://stmarysmusings.sbnation.com:443/:550 551 552 553 554 555 556 557 558,https://www.nytimes.com:443/section/magazine:305,https://en.wikipedia.org:443/wiki/MLS:7857 7858 7859 7860 7861 7862,https://en.wikipedia.org:443/wiki/National_Football_League:5577,https://en.wikipedia.org:443/wiki/Sports_in_France:1896 1897 1898,https://bolavip.com:443/en:659 660 661 662 663 664 665 666 667 668 669 670 671,https://en.wikipedia.org:443/wiki/Sports_in_Armenia:1959 1960 1961 1962,https://www.sportsbusinessjournal.com:443/Archive/Sections/International.aspx:754 755 756 757 758 759 760,https://www.theguardian.com:443/us/soccer:699 700 701 702 703 704 705 706 707 708 709 710 711 712,https://en.wikipedia.org:443/wiki/Sports_in_Arizona:949,https://en.wikipedia.org:443/wiki/Fox_Sports_1:3636 3637 3638 3639 3640 3641,https://www.nytimes.com:443/section/world:868,https://www.nytimes.com:443/section/business:366,https://en.wikipedia.org:443/wiki/Sports_in_Belize:831 832,https://www.tlc.com:443/inside-tlc/TLC-Casting:823,https://en.wikipedia.org:443/wiki/Culture_of_the_United_States:8411,https://en.wikipedia.org:443/wiki/Sports_in_Poland:2119 2120,https://en.wikipedia.org:443/wiki/NBA:5511,https://en.wikipedia.org:443/wiki/USA_Cricket:1436 1437 1438 1439,https://en.wikipedia.org:443/wiki/Sports_in_India:12597 12598 12599 12600 12601 12602 12603 12604 12605 12606 12607 12608 12609 12610 12611 12612 12613 12614,https://en.wikipedia.org:443/wiki/Portal:Current_events:2232,https://www.nytimes.com:443/column/op-docs:286,https://en.wikipedia.org:443/wiki/Sports_in_Namibia:822,https://www.nytimes.com:443/section/magazine?page=8:1108 