pressur pressur-0 6883 https://en.wikipedia.org:443/wiki/American_Revolution:12201,https://www.themarshallproject.org:443/2022/06/14/what-did-fbi-data-say-about-crime-in-2021-it-s-too-unreliable-to-tell:844,https://en.wikipedia.org:443/wiki/Immigrant_health_care_in_the_United_States:4501 4502 4503,https://www.bbc.co.uk:443/news/world-us-canada-55358342:398 399,https://www.nytimes.com:443/ca/:531,https://en.wikipedia.org:443/wiki/Agriculture_in_the_United_States:4207,https://en.wikipedia.org:443/wiki/Powers_of_the_president_of_the_United_States:2597,https://www.nytimes.com:443/2024/05/04/us/politics/biden-insulin-voters-drugs.html:726,https://en.wikipedia.org:443/wiki/Tribal_sovereignty_in_the_United_States:3382 3383,https://en.wikipedia.org:443/wiki/IndyCar_Series:5401 5402 5403 5404 5405 5406 5407 5408 5409 5410 5411 5412 5413,https://www.nytimes.com:443/wirecutter/:2293 2294 2295,https://www.nytimes.com:443/section/science:548,https://www.independent.co.uk:443/extras/indybest/house-garden:759,https://en.wikipedia.org:443/wiki/Iroquois:11443 11444 11445 11446 11447,https://en.wikipedia.org:443/wiki/Olympic_Games:9252 9253 9254 9255,https://en.wikipedia.org:443/wiki/Baseball:7472 7473 7474 7475,https://www.nytimes.com:443/2024/05/04/us/politics/trump-biden-campaign-young-voters.html:650,https://en.wikipedia.org:443/wiki/Supreme_Court_of_the_United_States:12394 12395,https://www.nytimes.com:443/spotlight/nytimesineducation:864 865,https://en.wikipedia.org:443/wiki/Race_and_maternal_health_in_the_United_States:3080,https://en.wikipedia.org:443/wiki/New_England_Patriots:10001,https://en.wikipedia.org:443/wiki/Sports_in_Venezuela:1671,https://www.nytimes.com:443/video/last-word:837 838,https://en.wikipedia.org:443/wiki/Southern_United_States:8864 8865 8866,https://www.nytimes.com:443/:646,https://en.wikipedia.org:443/wiki/History_of_the_United_States_(2008%E2%80%93present):8647 8648,https://en.wikipedia.org:443/wiki/Major_professional_sports_teams_of_the_United_States_and_Canada:1478,https://www.businessinsider.com:443/a-timeline-of-trumps-efforts-to-overturn-the-2020-election-2021-10:754 755 756,https://www.businessinsider.com:443/real-estate:963,https://en.wikipedia.org:443/wiki/Great_Recession_in_the_United_States:3876 3877,https://www.nytimes.com:443/live/2024/05/04/us/college-campus-protests:2214,https://www.azcentral.com:443/story/sports/nfl/cardinals/2015/09/06/nfls-dynasties-decade/71605710/:566,https://www.nytimes.com:443/2024/05/03/opinion/campus-protests-israel-gaza.html:1641 1642 1643,https://en.wikipedia.org:443/wiki/Environmental_issues_in_the_United_States:2928,https://en.wikipedia.org:443/wiki/Snowboarding:2830,https://www.nytimes.com:443/section/science?page=9:1707,https://en.wikipedia.org:443/wiki/United_States_federal_civil_service:1909,https://en.wikipedia.org:443/wiki/Portal:Current_events:2254,https://www.pbs.org:443/wgbh/americanexperience/features/klansville-faq/:909,https://en.wikipedia.org:443/wiki/Constitution_of_the_United_States:9802,https://en.wikipedia.org:443/wiki/Education_in_the_United_States:7742 7743,https://en.wikipedia.org:443/wiki/Cable_television:2585,https://millercenter.org:443/president/adams/essays/clay-1825-secretary-of-state:553,https://www.nytimes.com:443/live/2024/05/03/world/israel-gaza-war-hamas:1329 1330 1331 1332 1333 1334,https://en.wikipedia.org:443/wiki/Terrorism_in_the_United_States:9403,https://en.wikipedia.org:443/wiki/American_Sign_Language:5108,https://www.nytimes.com:443/interactive/2023/us/politics/presidential-candidates-2024.html:470,https://www.nytimes.com:443/2017/06/26/health/undocumented-immigrants-health-care.html:830 831,https://www.tlc.com:443/shows/90-day-fiance-happily-ever-after/photo-galleries/90-day-fiance-happily-ever-after-couples-bios-season-8:676,https://www.nytimes.com:443/2024/05/04/opinion/alexandria-ocasio-cortez.html:962,https://en.wikipedia.org:443/wiki/Vietnam_War:13678 13679,https://www.nytimes.com:443/2024/05/02/us/blast-mortar-brain-injury-military.html:939 940,https://en.wikipedia.org:443/wiki/U.S._state:3903,https://www.nytimes.com:443/news-event/israel-hamas-gaza:515,https://en.wikipedia.org:443/wiki/History_of_the_United_States_(1849%E2%80%931865):4237 4238 4239,https://www.nytimes.com:443/section/health:521,https://en.wikipedia.org:443/wiki/National_Football_League:5610,https://www.nytimes.com:443/section/well:399,https://www.nytimes.com:443/2024/05/03/nyregion/trump-trial-hope-hicks-takeaways.html:574 575,https://www.nytimes.com:443/2014/11/11/technology/obama-net-neutrality-fcc.html:587,https://www.nytimes.com:443/section/politics:339 340,https://en.wikipedia.org:443/wiki/Cold_War:15139 15140 15141 15142 15143 15144 15145 15146,https://en.wikipedia.org:443/wiki/Jack_Nicklaus:7094 7095,https://www.nytimes.com:443/interactive/2024/02/01/magazine/israel-founding-palestinian-conflict.html:1295,https://en.wikipedia.org:443/wiki/College_athletics_in_the_United_States:3763,https://www.nytimes.com:443/2024/05/04/world/middleeast/cindy-mccain-gaza-famine.html:476,https://en.wikipedia.org:443/wiki/Speaker_of_the_United_States_House_of_Representatives:3924,https://en.wikipedia.org:443/wiki/National_Boxing_Association:2188,https://www.nytimes.com:443/article/senate-races-2024-election.html:838,https://en.wikipedia.org:443/wiki/War_in_Afghanistan_(2001%E2%80%932021):14692 14693 14694,https://www.nytimes.com:443/section/health?page=7:1373,https://www.nytimes.com:443/international/:529,https://en.wikipedia.org:443/wiki/College_basketball:4731,https://www.nytimes.com:443/2024/05/02/us/politics/abortion-ballot-measures-2024.html:834,https://en.wikipedia.org:443/wiki/Beach_volleyball:3573 3574 3575,https://www.independent.co.uk:443/tv/travel-smart:831 832 833,https://en.wikipedia.org:443/wiki/Prescription_drug_prices_in_the_United_States:4830,https://www.nytimes.com:443/live/2024/01/19/world/israel-hamas-news/a-un-official-says-israeli-treatment-of-detainees-may-amount-to-torture?smid=url-share:2675 2676,https://en.wikipedia.org:443/wiki/United_States_dollar:5921,https://www.nytimes.com:443/live/2024/05/04/world/israel-gaza-war-hamas:1345 1346 1347 1348,https://en.wikipedia.org:443/wiki/Maternal_mortality_in_the_United_States:3708 3709 3710,https://www.bbc.co.uk:443/news/world-asia-35169478:803 804,https://en.wikipedia.org:443/wiki/Ice_hockey:5931 5932 5933 5934 5935,https://www.nytimes.com:443/live/2024/05/02/us/biden-trump-campaign:1858,https://www.nytimes.com:443/2024/04/27/us/politics/trump-trial-fact-check.html:599,https://www.nytimes.com:443/2023/04/14/us/politics/mike-pompeo-president-2024.html:436,https://www.tlc.com:443/parenting/are-men-or-women-more-likely-to-want-kids-study:540 541 542 543 544 545 546,https://en.wikipedia.org:443/wiki/Spanish%E2%80%93American_War:10977 10978 10979,https://history.army.mil:443/books/wwii/persian/index.htm:774,https://en.wikipedia.org:443/wiki/Volleyball:3752 