prevail prevail-0 2229 https://en.wikipedia.org:443/wiki/American_Revolution:12202,https://en.wikipedia.org:443/wiki/U.S._state:3905 3906,https://www.theguardian.com:443/sport/2017/aug/19/will-mcgregor-v-mayweather-save-american-boxing-or-bury-it?CMP=share_btn_link:1137,https://en.wikipedia.org:443/wiki/Cold_War:15150,https://en.wikipedia.org:443/wiki/History_of_the_United_States_(1945%E2%80%931964):6548,https://en.wikipedia.org:443/wiki/Democratic_Party_(United_States):10294,https://en.wikipedia.org:443/wiki/Americans:6648,https://en.wikipedia.org:443/wiki/United_States_Declaration_of_Independence:8284,https://en.wikipedia.org:443/wiki/Culture_of_the_United_States:8466,https://en.wikipedia.org:443/wiki/American_Sign_Language:5109,https://en.wikipedia.org:443/wiki/Speaker_of_the_United_States_House_of_Representatives:3925 3926,https://en.wikipedia.org:443/wiki/United_States_Reports:530,https://en.wikipedia.org:443/wiki/Vietnam_War:13683,https://en.wikipedia.org:443/wiki/West_Coast_of_the_United_States:2331,https://en.wikipedia.org:443/wiki/United_States_dollar:5923 5924,https://www.nytimes.com:443/2024/05/04/opinion/trump-second-term-illiberalism.html:782,https://en.wikipedia.org:443/wiki/Environmental_issues_in_the_United_States:2929 2930,https://www.nytimes.com:443/article/senate-races-2024-election.html:839,https://en.wikipedia.org:443/wiki/Olympic_Games:9258,https://www.law.cornell.edu:443/supremecourt/text/74/700:3527,https://www.nytimes.com:443/2024/05/01/us/free-speech-campus-protests.html:605,https://www.nytimes.com:443/live/2024/05/02/us/biden-trump-campaign:1859 1860,https://www.azcentral.com:443/story/sports/nfl/cardinals/2015/09/06/nfls-dynasties-decade/71605710/:567,https://en.wikipedia.org:443/wiki/New_England:7419,https://www.nytimes.com:443/2024/05/03/us/abortion-rights-missouri-south-dakota.html:468,https://en.wikipedia.org:443/wiki/Boston:10240,https://en.wikipedia.org:443/wiki/Henley_Royal_Regatta:2605,https://www.nytimes.com:443/video/last-word:839,https://en.wikipedia.org:443/wiki/Columbia_(personification):2114,https://en.wikipedia.org:443/wiki/Jack_Nicklaus:7099,https://en.wikipedia.org:443/wiki/Supreme_Court_of_the_United_States:12401,https://en.wikipedia.org:443/wiki/Sports_in_India:12640 