principl principl-0 4455 https://en.wikipedia.org:443/wiki/USA_Baseball:4710,https://en.wikipedia.org:443/wiki/Antisemitism_in_the_United_States:3457,https://www.nytimes.com:443/interactive/2024/02/01/magazine/israel-founding-palestinian-conflict.html:1297 1298,https://en.wikipedia.org:443/wiki/Sports_in_India:12658,https://en.wikipedia.org:443/wiki/New_England:7441,https://en.wikipedia.org:443/wiki/Literacy_in_the_United_States:4455 4456 4457,https://www.nytimes.com:443/2024/05/04/world/europe/uk-rishi-sunak-conservatives-elections.html:728,https://en.wikipedia.org:443/wiki/History_of_the_United_States_(1945%E2%80%931964):6564 6565 6566,https://www.usatoday.com:443/news/nation/:241,https://en.wikipedia.org:443/wiki/Supreme_Court_of_the_United_States:12417 12418 12419 12420 12421 12422 12423 12424 12425,https://en.wikipedia.org:443/wiki/Iroquois:11461 11462 11463,https://en.wikipedia.org:443/wiki/War_in_Afghanistan_(2001%E2%80%932021):14717,https://en.wikipedia.org:443/wiki/American_Sign_Language:5114 5115,https://www.usatoday.com:443/story/news/politics/2022/08/04/krysten-sinema-inflation-reduction-act-senator-democrats-vote/10234906002/:329,https://en.wikipedia.org:443/wiki/Uniform_act:625 626,https://en.wikipedia.org:443/wiki/Comparison_of_U.S._state_and_territory_governments:1468,https://en.wikipedia.org:443/wiki/Americans:6655,https://www.azcentral.com:443/story/sports/nfl/cardinals/2015/09/06/nfls-dynasties-decade/71605710/:568,https://www.nytimes.com:443/section/travel:465,https://en.wikipedia.org:443/wiki/Colonial_history_of_the_United_States:10129 10130,https://en.wikipedia.org:443/wiki/U.S._state:3913 3914 3915 3916,https://www.usatoday.com:443/story/sports/mlb/2013/08/11/fox-sports-1-versus-espn/2641247/:698,https://en.wikipedia.org:443/wiki/Federal_tribunals_in_the_United_States:1370,https://ww2.arb.ca.gov:443/our-work/programs/low-carbon-fuel-standard/about:349,https://en.wikipedia.org:443/wiki/Southern_United_States:8891,https://en.wikipedia.org:443/wiki/The_Washington_Post:5268 5269,https://www.nytimes.com:443/2023/11/29/business/dealbook/kamala-harris-biden-voters.html:504,https://en.wikipedia.org:443/wiki/Architecture_of_the_United_States:4369,https://www.usatoday.com:443/story/sports/winter-olympics-2018/2018/02/13/medalists-2018-winter-olympics-get-precious-keepsake-and-medal/332267002/:209,https://en.wikipedia.org:443/wiki/Tribal_sovereignty_in_the_United_States:3386,https://en.wikipedia.org:443/wiki/Democratic_Party_(United_States):10343 10344,https://en.wikipedia.org:443/wiki/Cold_War:15191,https://en.wikipedia.org:443/wiki/College_athletics_in_the_United_States:3770 3771 3772,https://www.nytimes.com:443/2024/05/01/magazine/catholic-cousin-annulment-ethics.html:529,https://en.wikipedia.org:443/wiki/United_States_Olympic_%26_Paralympic_Committee:2815,https://www.law.cornell.edu:443/supremecourt/text/74/700:3538 3539,https://en.wikipedia.org:443/wiki/American_exceptionalism:4824 4825 4826 4827,https://en.wikipedia.org:443/wiki/Culture_of_the_United_States:8501,https://www.usatoday.com:443/for-subscribers/:204,https://en.wikipedia.org:443/wiki/United_States_Lifesaving_Association:453,https://www.nytimes.com:443/live/2024/05/04/us/college-campus-protests:2218 2219 2220,https://en.wikipedia.org:443/wiki/United_States_federal_civil_service:1915,https://en.wikipedia.org:443/wiki/National_Reconnaissance_Office:3466,https://en.wikipedia.org:443/wiki/Perpetual_Union:2590 2591,https://en.wikipedia.org:443/wiki/United_States_Declaration_of_Independence:8306 8307 8308 8309 8310 8311 8312 8313 8314 8315 8316 8317 8318,https://en.wikipedia.org:443/wiki/Town_meeting:2164 2165,https://www.nytimes.com:443/2024/05/01/us/free-speech-campus-protests.html:606 607,https://www.nytimes.com:443/video/last-word:842 843 844,https://en.wikipedia.org:443/wiki/Constitution_of_the_United_States:9826 9827 9828 9829,https://en.wikipedia.org:443/wiki/Cable_television:2593 2594 2595,https://www.nytimes.com:443/2009/01/05/opinion/05krugman.html:407,https://www.usatoday.com:443/story/sports/soccer/2017/02/02/nwsl-matches-will-be-shown-on-lifetime-each-saturday/97394336/:257,https://en.wikipedia.org:443/wiki/American_Revolution:12241 12242 12243 12244 12245,https://www.usatoday.com:443/story/sports/mlb/2016/11/03/world-series-tv-television-ratings-chicago-cubs-cleveland-indians/93231896/:201,https://www.nytimes.com:443/section/opinion?page=5:723,https://en.wikipedia.org:443/wiki/Articles_of_Confederation:5617 5618 