promot promot-0 9434 https://en.wikipedia.org:443/wiki/USA_Water_Ski_%26_Wake_Sports:241,https://www.nytimes.com:443/video/last-word:852,https://en.wikipedia.org:443/wiki/MLB_Network:3624 3625 3626 3627,https://www.sportsbusinessjournal.com:443/Daily/Issues/2024/04/29.aspx:722,https://en.wikipedia.org:443/wiki/Speaker_of_the_United_States_House_of_Representatives:4007,https://en.wikipedia.org:443/wiki/Immigrant_health_care_in_the_United_States:4579,https://www.nytimes.com:443/2024/05/04/world/europe/uk-rishi-sunak-conservatives-elections.html:739 740,https://www.nytimes.com:443/2024/05/04/style/nonalcoholic-drinks-kids-mocktail.html:586,https://en.wikipedia.org:443/wiki/United_States_Polo_Association:1174 1175,https://theconversation.com:443/the-rise-and-rise-of-ultimate-fighting-and-why-boxing-is-now-so-passe-55910:453 454 455 456 457,https://en.wikipedia.org:443/wiki/New_England_Patriots:10128,https://bolavip.com:443/en/info/privacy:560 561 562 563 564,https://wtop.com:443/virginia/2020/01/virginia-becomes-38th-state-to-ratify-equal-rights-amendment-but-it-may-be-too-late/:554 555,https://www.nytimes.com:443/section/health?page=7:1395,https://nces.ed.gov:443/blogs/nces/post/where-can-i-find-information-about-the-condition-of-education-in-the-united-states:326,https://en.wikipedia.org:443/wiki/Colonial_history_of_the_United_States:10215 10216 10217 10218,https://en.wikipedia.org:443/wiki/History_of_the_United_States_(1945%E2%80%931964):6630,https://www.nytimes.com:443/section/fashion:845,https://en.wikipedia.org:443/wiki/National_Boxing_Association:2209,https://en.wikipedia.org:443/wiki/Cycling_in_the_United_States:869,https://en.wikipedia.org:443/wiki/Snowboarding:2869,https://en.wikipedia.org:443/wiki/Fashion_in_the_United_States:1504,https://www.theguardian.com:443/us/soccer:721 722 723,https://www.nytimes.com:443/2024/05/04/us/politics/biden-insulin-voters-drugs.html:742,https://en.wikipedia.org:443/wiki/Mayoralty_in_the_United_States:624,https://en.wikipedia.org:443/wiki/Sports_in_Ghana:2013 2014 2015 2016 2017 2018 2019,https://www.azcentral.com:443/story/sports/nfl/cardinals/2015/09/06/nfls-dynasties-decade/71605710/:573,https://en.wikipedia.org:443/wiki/Sports_in_Yemen:896,https://en.wikipedia.org:443/wiki/Boston:10324,https://www.nytimes.com:443/2024/05/04/nyregion/trump-trial-scandals-testimony.html:944,https://en.wikipedia.org:443/wiki/Supreme_Court_of_the_United_States:12566,https://en.wikipedia.org:443/wiki/Beach_volleyball:3639 3640,https://www.theguardian.com:443/us-news/2020/aug/25/qanon-conspiracy-theory-explained-trump-what-is:827 828,https://en.wikipedia.org:443/wiki/Jack_Nicklaus:7192 7193,https://en.wikipedia.org:443/wiki/Arkansas_River:1891,https://en.wikipedia.org:443/wiki/Soccer_in_the_United_States:6858 6859 6860 6861,https://en.wikipedia.org:443/wiki/Democratic_Party_(United_States):10464 10465 10466 10467 10468 10469 10470,https://en.wikipedia.org:443/wiki/Boston_Red_Sox:8280 8281,https://en.wikipedia.org:443/wiki/Ice_hockey:6011,https://en.wikipedia.org:443/wiki/Drug_Enforcement_Administration:5082,https://en.wikipedia.org:443/wiki/Outline_of_the_history_of_the_United_States:3912,https://www.nytimes.com:443/2024/05/04/world/europe/russia-soldiers-women.html:797,https://www.sportsbusinessjournal.com:443/Archive/Sections/International.aspx:780 781,https://en.wikipedia.org:443/wiki/War_in_Afghanistan_(2001%E2%80%932021):14833,https://en.wikipedia.org:443/wiki/United_States_Backgammon_Federation:489,https://www.nytimes.com:443/2024/05/04/business/energy-environment/tesla-electric-vehicles-supercharger.html:782,https://www.nytimes.com:443/2024/05/02/arts/music/tiktok-universal-music-deal.html:441,https://en.wikipedia.org:443/wiki/Olympic_Games:9363 9364 9365 9366 9367 9368 9369 9370 9371 9372,https://en.wikipedia.org:443/wiki/Professional_boxer:1592 1593 1594 1595 1596 1597,https://www.nytimes.com:443/2024/04/10/style/rishi-sunak-adidas-sambas.html:400,https://en.wikipedia.org:443/wiki/Culture_of_the_United_States:8611,https://www.nytimes.com:443/2024/05/03/opinion/us-africa-niger-chad.html:532,https://www.sportsbusinessjournal.com:443/Articles/2023/10/23/mls-sets-attendance-record-for-season:631,https://www.law.cornell.edu:443/supremecourt/text/74/700:3587,https://en.wikipedia.org:443/wiki/American_Sign_Language:5163,https://en.wikipedia.org:443/wiki/Vietnam_War:13849 13850 13851 13852 13853,https://en.wikipedia.org:443/wiki/Housing_in_the_United_States:1215,https://www.sportsbusinessjournal.com:443/Journal/Issues/2012/04/02/Media/Fox-channel.aspx:941 942,https://en.wikipedia.org:443/wiki/Sports_in_El_Salvador:2540,https://en.wikipedia.org:443/wiki/United_States_dollar:6023 6024 6025,https://en.wikipedia.org:443/wiki/Sports_in_Cuba:978 979 980 981,https://en.wikipedia.org:443/wiki/Henley_Royal_Regatta:2671,https://en.wikipedia.org:443/wiki/Fox_Sports_1:3742 3743,https://www.nytimes.com:443/live/2024/05/02/us/biden-trump-campaign:1873 1874,https://en.wikipedia.org:443/wiki/IndyCar_Series:5478 5479 5480,https://nytlicensing.com:443/timesdigest/:622,https://www.forbes.com:443/2008/09/09/mls-soccer-beckham-biz-sports-cz_kb_0909mlsvalues.html:326 327,https://en.wikipedia.org:443/wiki/USA_Cycling:1044 1045 1046,https://www.usatoday.com:443/story/sports/mlb/2013/08/11/fox-sports-1-versus-espn/2641247/:715 716,https://en.wikipedia.org:443/wiki/Hawaiian_home_land:670,https://www.ghanaweb.com:443/GhanaHomePage/SportsArchive/Basketball-is-the-biggest-sporting-discipline-in-Ghana-after-football-and-boxing-Yaw-Sakyi-927250:234 235 236,https://en.wikipedia.org:443/wiki/Sports_in_Papua_New_Guinea:967,https://en.wikipedia.org:443/wiki/United_States_federal_civil_service:1937,https://en.wikipedia.org:443/wiki/Professional_Disc_Golf_Association:1042 1043,https://en.wikipedia.org:443/wiki/Iroquois:11545 11546,https://www.usopc.org:443/paralympic-sport-development:227,https://en.wikipedia.org:443/wiki/Maternal_mortality_in_the_United_States:3793 3794,https://en.wikipedia.org:443/wiki/Sports_in_South_Korea:1684,https://en.wikipedia.org:443/wiki/Greenhouse_gas_emissions_by_the_United_States:3211,https://en.wikipedia.org:443/wiki/Sports_in_Maryland:4150,https://en.wikipedia.org:443/wiki/American_Revolution:12358,https://en.wikipedia.org:443/wiki/Southern_United_States:8965,https://ww2.arb.ca.gov:443/our-work/programs/low-carbon-fuel-standard/about:361 362,https://en.wikipedia.org:443/wiki/Sports_in_Sierra_Leone:434,https://en.wikipedia.org:443/wiki/American_exceptionalism:4871 4872 4873,https://en.wikipedia.org:443/wiki/Spanish%E2%80%93American_War:11087 11088 11089,https://en.wikipedia.org:443/wiki/Sports_in_Armenia:1991 1992,https://en.wikipedia.org:443/wiki/National_symbols_of_the_United_States:1264,https://en.wikipedia.org:443/wiki/Sports_in_France:1926 1927,https://en.wikipedia.org:443/wiki/Forbes:1704,https://en.wikipedia.org:443/wiki/Bureau_of_Diplomatic_Security:3269,https://en.wikipedia.org:443/wiki/Agriculture_in_the_United_States:4342,https://www.sportsbusinessjournal.com:443/Journal/Issues/2024/03/04.aspx:754,https://nirsa.net:443/nirsa/:318,https://bolavip.com:443/en/info/terms-conditions:467 468 469 470,https://en.wikipedia.org:443/wiki/Fenway_Park:7421 7422 7423 7424 7425 7426,https://en.wikipedia.org:443/wiki/Cold_War:15334 15335 15336 15337 15338 15339,https://en.wikipedia.org:443/wiki/Baseball:7579 7580,https://en.wikipedia.org:443/wiki/MLS:8012 8013 8014 8015,https://www.nytimes.com:443/2024/04/26/us/politics/kristi-noem-dog-killing.html:463 464,https://en.wikipedia.org:443/wiki/Constitution_of_the_United_States:10011,https://en.wikipedia.org:443/wiki/Inter_Miami:6093,https://en.wikipedia.org:443/wiki/Sports_in_India:12765 12766 12767 12768 12769 12770 12771 12772 12773 12774 12775 12776 12777 12778,https://www.cnn.com:443/2020/09/26/politics/supreme-court-conservative/index.html:1045,https://bleacherreport.com:443/articles/2748217-gsp-vacates-belt-champion-robert-whittaker-will-face-luke-rockhold-at-ufc-221:141 142,https://en.wikipedia.org:443/wiki/Education_in_the_United_States:7953 7954,https://en.wikipedia.org:443/wiki/The_Washington_Post:5350 5351 5352 5353,https://www.nytimes.com:443/2023/04/14/us/politics/mike-pompeo-president-2024.html:442,https://www.sportsbusinessjournal.com:443/Subscribe/Subscription-Landing.aspx:705 706,https://en.wikipedia.org:443/wiki/United_States_Declaration_of_Independence:8409 8410 8411,https://www.theguardian.com:443/sport/2017/aug/19/will-mcgregor-v-mayweather-save-american-boxing-or-bury-it?CMP=share_btn_link:1154 1155 1156 1157 1158 1159 1160 1161,https://www.wired.com:443/2016/08/olympic-cities-everywhere/:621,https://en.wikipedia.org:443/wiki/Timeline_of_United_States_inventions_(after_1991):2173,https://en.wikipedia.org:443/wiki/USA_Cricket:1457,https://en.wikipedia.org:443/wiki/United_States_Olympic_%26_Paralympic_Committee:2871 2872,https://en.wikipedia.org:443/wiki/Sports_in_Belize:847,https://en.wikipedia.org:443/wiki/U.S._Immigration_and_Customs_Enforcement:4896,https://en.wikipedia.org:443/wiki/United_States_Public_Health_Service_Commissioned_Corps:2128 2129 2130 2131 2132 2133,https://www.nytimes.com:443/section/fashion?page=9:1797,https://en.wikipedia.org:443/wiki/Summer_Olympic_Games:4510 4511,https://en.wikipedia.org:443/wiki/National_Football_League:5746,https://en.wikipedia.org:443/wiki/Sports_in_the_United_States:3784 3785,https://en.wikipedia.org:443/wiki/Tribal_sovereignty_in_the_United_States:3407 