purchas purchas-0 5130 https://en.wikipedia.org:443/wiki/American_Revolution:12507 12508,https://en.wikipedia.org:443/wiki/West_Coast_of_the_United_States:2362 2363 2364,https://www.azcentral.com:443/story/sports/nfl/cardinals/2015/09/06/nfls-dynasties-decade/71605710/:574,https://en.wikipedia.org:443/wiki/IndyCar_Series:5539,https://en.wikipedia.org:443/wiki/History_of_the_United_States_(1849%E2%80%931865):4349 4350,https://en.wikipedia.org:443/wiki/Soccer_in_the_United_States:6897,https://www.nytimes.com:443/2024/05/03/nyregion/trump-trial-hope-hicks-takeaways.html:589,https://en.wikipedia.org:443/wiki/New_England:7581 7582 7583,https://en.wikipedia.org:443/wiki/Vietnam_War:14016,https://en.wikipedia.org:443/wiki/Sports_in_Kentucky:3473,https://en.wikipedia.org:443/wiki/Cable_television:2661 2662,https://en.wikipedia.org:443/wiki/MLS:8043 8044,https://en.wikipedia.org:443/wiki/U.S._state:4016,https://en.wikipedia.org:443/wiki/United_States_dollar:6066 6067 6068 6069 6070 6071,https://www.nytimes.com:443/books/best-sellers/:1285 1286 1287 1288 1289 1290 1291 1292 1293 1294 1295 1296,https://en.wikipedia.org:443/wiki/Sports_in_Washington:3575 3576 3577 3578,https://en.wikipedia.org:443/wiki/Outline_of_the_history_of_the_United_States:3973 3974 3975 3976 3977,https://en.wikipedia.org:443/wiki/History_of_the_United_States_(1945%E2%80%931964):6715 6716 6717,https://en.wikipedia.org:443/wiki/Culture_of_the_United_States:8696 8697,https://en.wikipedia.org:443/wiki/Olympic_Games:9430,https://en.wikipedia.org:443/wiki/United_States_Olympic_%26_Paralympic_Committee:2900,https://en.wikipedia.org:443/wiki/Inter_Miami:6116 6117 6118 6119,https://en.wikipedia.org:443/wiki/Iroquois:11628 11629 11630 11631,https://en.wikipedia.org:443/wiki/Carlos_Bocanegra:2093 2094,https://www.nytimes.com:443/interactive/2024/05/03/opinion/global-billionaires-tax.html:672,https://en.wikipedia.org:443/wiki/Francis_Olympic_Field:1678 1679,https://en.wikipedia.org:443/wiki/The_Washington_Post:5452 5453 5454 5455 5456 5457 5458 5459 5460,https://en.wikipedia.org:443/wiki/Spanish%E2%80%93American_War:11305 11306 11307 11308 11309 11310 11311,https://en.wikipedia.org:443/wiki/Constitution_of_the_United_States:10224 10225,https://en.wikipedia.org:443/wiki/Prescription_drug_prices_in_the_United_States:5191 5192 5193 5194 5195,https://en.wikipedia.org:443/wiki/Cold_War:15496,https://www.nytimes.com:443/2024/04/27/opinion/left-right-happiness.html:502,https://en.wikipedia.org:443/wiki/Henley_Royal_Regatta:2698 2699,https://www.law.cornell.edu:443/supremecourt/text/74/700:3702 3703 3704 3705 3706 3707 3708 3709 3710 3711 3712 3713 3714 3715 3716 3717 3718 3719 3720 3721 3722 3723 3724,https://www.packers.com:443/community/shareholders:496,https://en.wikipedia.org:443/wiki/American_exceptionalism:4931,https://www.forbes.com:443/sites/mikeozanian/2019/05/10/david-beckham-reportedly-buys-stake-in-his-company-at-150-million-valuation/:200,https://en.wikipedia.org:443/wiki/Northern_United_States:560 561 562,https://en.wikipedia.org:443/wiki/Bureau_of_Diplomatic_Security:3341,https://en.wikipedia.org:443/wiki/Southern_United_States:9031 9032 9033 9034,https://en.wikipedia.org:443/wiki/National_Football_League:5771,https://www.nytimes.com:443/privacy/cookie-policy:428 429,https://www.nytimes.com:443/interactive/2024/02/01/magazine/israel-founding-palestinian-conflict.html:1319 1320,https://en.wikipedia.org:443/wiki/Red_River_of_the_South:1486 1487 1488,https://en.wikipedia.org:443/wiki/Articles_of_Confederation:5759 5760 5761,https://en.wikipedia.org:443/wiki/Tribal_sovereignty_in_the_United_States:3459 3460,https://en.wikipedia.org:443/wiki/Terrorism_in_the_United_States:9555 9556 9557 9558 9559,https://en.wikipedia.org:443/wiki/Agriculture_in_the_United_States:4382,https://en.wikipedia.org:443/wiki/Fenway_Park:7475,https://www.nytimes.com:443/2021/07/07/style/how-the-french-manicure-made-its-comeback.html:564,https://en.wikipedia.org:443/wiki/New_England_Patriots:10165 10166 10167 10168 10169,https://stmarysmusings.sbnation.com:443/:568,https://www.nytimes.com:443/books/best-sellers/mass-market-monthly/:522 523,https://www.nytimes.com:443/2024/05/03/opinion/us-africa-niger-chad.html:538,https://en.wikipedia.org:443/wiki/Boston_Red_Sox:8305 8306 8307,https://en.wikipedia.org:443/wiki/United_States_Declaration_of_Independence:8511,https://en.wikipedia.org:443/wiki/Indiana:7992 7993 7994,https://www.wired.com:443/2016/08/olympic-cities-everywhere/:622,https://en.wikipedia.org:443/wiki/Perpetual_Union:2640,https://en.wikipedia.org:443/wiki/Sergeant_at_Arms_of_the_United_States_Senate:1585,https://en.wikipedia.org:443/wiki/History_of_the_United_States_(2008%E2%80%93present):8839,https://en.wikipedia.org:443/wiki/Forbes:1741 1742 1743 1744 1745 1746,https://en.wikipedia.org:443/wiki/Drug_Enforcement_Administration:5135,https://en.wikipedia.org:443/wiki/Colonial_history_of_the_United_States:10386 10387 10388 10389 10390 10391 10392 10393 10394 10395,https://en.wikipedia.org:443/wiki/Town_meeting:2217 2218,https://en.wikipedia.org:443/wiki/Great_Recession_in_the_United_States:3982 3983 3984 3985 3986 3987 3988 