purpl purpl-0 1032 https://www.patriots.com:443/news/check-out-the-2016-patriots-color-rush-jerseys-270621:1032,https://en.wikipedia.org:443/wiki/Indiana:8020,https://en.wikipedia.org:443/wiki/List_of_mountains_of_the_United_States:8823 8824,https://bolavip.com:443/en:686,https://www.nytimes.com:443/section/food:395,https://www.azcentral.com:443/story/sports/nfl/cardinals/2015/09/06/nfls-dynasties-decade/71605710/:575,https://en.wikipedia.org:443/wiki/Iroquois:11635 11636 11637 11638,https://en.wikipedia.org:443/wiki/New_England:7594,https://www.foodnetwork.com:443/:666,https://en.wikipedia.org:443/wiki/Colonial_history_of_the_United_States:10426 10427,https://en.wikipedia.org:443/wiki/Vietnam_War:14017,https://en.wikipedia.org:443/wiki/Drug_Enforcement_Administration:5138,https://en.wikipedia.org:443/wiki/Sports_in_Kentucky:3474,https://en.wikipedia.org:443/wiki/Columbia_(personification):2157,https://en.wikipedia.org:443/wiki/Spectrum_Sports:709,https://www.nytimes.com:443/2024/05/03/opinion/campus-protests-israel-gaza.html:1728 1729 