quarter quarter-0 6156 https://en.wikipedia.org:443/wiki/Supreme_Court_of_the_United_States:12727,https://www.businessinsider.com:443/s:486 487,https://en.wikipedia.org:443/wiki/United_States_Aquatic_Sports:709,https://en.wikipedia.org:443/wiki/Time_in_the_United_States:1426,https://en.wikipedia.org:443/wiki/War_in_Afghanistan_(2001%E2%80%932021):15124 15125,https://en.wikipedia.org:443/wiki/United_States_dollar:6084 6085 6086 6087 6088 6089 6090 6091 6092 6093 6094 6095 6096 6097,https://www.almanac.com:443/fact/how-much-is-two-bits-and-where:188,https://en.wikipedia.org:443/wiki/Snowboarding:2898,https://en.wikipedia.org:443/wiki/Culture_of_the_United_States:8721,https://en.wikipedia.org:443/wiki/New_England:7601 7603,https://en.wikipedia.org:443/wiki/List_of_U.S._states_and_territories_by_life_expectancy:1770 1771,https://news.gallup.com:443/topic/retirement.aspx:559 560,https://en.wikipedia.org:443/wiki/Iroquois:11657 11658 11659,https://en.wikipedia.org:443/wiki/Cold_War:15529,https://en.wikipedia.org:443/wiki/American_Revolution:12542 12543 12544 12545 12546 12547 12561,https://en.wikipedia.org:443/wiki/Sports_in_Venezuela:1733,https://en.wikipedia.org:443/wiki/Sports_in_South_Korea:1703,https://en.wikipedia.org:443/wiki/Sports_in_Brunei:1652 1653 1654,https://en.wikipedia.org:443/wiki/Spanish%E2%80%93American_War:11328,https://www.azcentral.com:443/story/sports/nfl/cardinals/2015/09/06/nfls-dynasties-decade/71605710/:576 577,https://en.wikipedia.org:443/wiki/Housing_in_the_United_States:1257 1258,https://www.nytimes.com:443/section/fashion?page=9:1806,https://en.wikipedia.org:443/wiki/Consolidated_city-county:2719,https://en.wikipedia.org:443/wiki/Constitution_of_the_United_States:10248 10249,https://www.nytimes.com:443/2022/02/11/sports/horse-racing/medina-spirit-kentucky-derby-necropsy.html?searchResultPosition=2:509,https://en.wikipedia.org:443/wiki/Sports_in_Samoa:1262,https://www.nytimes.com:443/2019/01/31/opinion/letters/letters-to-editor-new-york-times-women.html:447,https://en.wikipedia.org:443/wiki/Greenhouse_gas_emissions_by_the_United_States:3251,https://www.nytimes.com:443/section/technology:371,https://en.wikipedia.org:443/wiki/Architecture_of_the_United_States:4472 4473 4474 4475,https://en.wikipedia.org:443/wiki/Great_Recession_in_the_United_States:3994 3995 3996 3997 3998 3999 4000 4001 4002 4003 4004 4006 4007 4008 4009 4010,https://en.wikipedia.org:443/wiki/Sports_in_Estonia:1538,https://www.theguardian.com:443/sport/2017/aug/19/will-mcgregor-v-mayweather-save-american-boxing-or-bury-it?CMP=share_btn_link:1171 1172,https://en.wikipedia.org:443/wiki/Sports_in_Uruguay:811,https://www.nytimes.com:443/interactive/2024/05/03/opinion/global-billionaires-tax.html:673,https://en.wikipedia.org:443/wiki/U.S._state:4027 4028 4029 4030,https://en.wikipedia.org:443/wiki/List_of_U.S._state_statutory_codes:794 795,https://en.wikipedia.org:443/wiki/Terrorism_in_the_United_States:9598,https://en.wikipedia.org:443/wiki/Prescription_drug_prices_in_the_United_States:5221 5222 5223 5224,https://www.nytimes.com:443/section/business:382,https://en.wikipedia.org:443/wiki/United_States_men%27s_national_soccer_team:6399 6400 6401 6402 6403 6404 6405 6406 6407 6408 6409,https://www.nytimes.com:443/section/jobs:259,https://www.nytimes.com:443/section/travel:472,https://en.wikipedia.org:443/wiki/Sports_in_Finland:2482,https://en.wikipedia.org:443/wiki/Jack_Nicklaus:7239,https://en.wikipedia.org:443/wiki/New_England_Patriots:10216 10217 10218 10219 10220 10221 10222 10223,https://www.nytimes.com:443/2024/04/20/health/seniors-home-equity-mortgages.html:662,https://archive.curbed.com:443/2020/1/13/21026108/public-housing-faircloth-amendment-election-2020:885,https://cooking.nytimes.com:443/recipes/1013611-rhubarb-upside-down-cake:1372,https://en.wikipedia.org:443/wiki/History_of_the_United_States_(1945%E2%80%931964):6730 6731 6732 6734,https://en.wikipedia.org:443/wiki/History_of_the_United_States_(2008%E2%80%93present):8854,https://en.wikipedia.org:443/wiki/Indiana:8033,https://en.wikipedia.org:443/wiki/IndyCar_Series:5567,https://www.forbes.com:443/sites/greatspeculations/2019/09/22/a-strange-new-world-economic-slowdown-liquidity-issues/:618,https://en.wikipedia.org:443/wiki/Sports_in_India:12879,https://www.nytimes.com:443/2024/05/04/us/politics/biden-insulin-voters-drugs.html:752,https://en.wikipedia.org:443/wiki/Colonial_history_of_the_United_States:10455 10456 10457,https://en.wikipedia.org:443/wiki/List_of_mountains_of_the_United_States:8847 8848,https://www.nytimes.com:443/video/last-word:864,https://en.wikipedia.org:443/wiki/Sports_in_Syria:1432 1433,https://en.wikipedia.org:443/wiki/Sports_in_Ghana:2041,https://en.wikipedia.org:443/wiki/College_basketball:4787 4788 4789 4790 4791 4792 4793 4794,https://en.wikipedia.org:443/wiki/Comparison_of_U.S._state_and_territory_governments:1486 1487,https://www.nytimes.com:443/interactive/2024/03/28/travel/things-to-do-mumbai.html:1096,https://en.wikipedia.org:443/wiki/Olympic_Games:9455,https://www.nytimes.com:443/2024/05/04/opinion/trump-second-term-illiberalism.html:809,https://en.wikipedia.org:443/wiki/United_States_Declaration_of_Independence:8535 8536 8537,https://www.themarshallproject.org:443/2022/06/14/what-did-fbi-data-say-about-crime-in-2021-it-s-too-unreliable-to-tell:878,https://en.wikipedia.org:443/wiki/Maternal_mortality_in_the_United_States:3844,https://en.wikipedia.org:443/wiki/Horse_racing_in_the_United_States:1163 1164 1165 1166 1167 1168 1169 1170 1171 1172 1173 1174 1175 1176 1177 1178 1179 1180 1181 1182 1183 1184 1185 1186 1187 1188 1189 1190 1191,https://www.nytimes.com:443/interactive/2018/08/25/opinion/sunday/student-debt-loan-default-college.html:368,https://en.wikipedia.org:443/wiki/Democratic_Party_(United_States):10588,https://en.wikipedia.org:443/wiki/Articles_of_Confederation:5771 5772 5773,https://en.wikipedia.org:443/wiki/Perpetual_Union:2645,https://en.wikipedia.org:443/wiki/Soccer_in_the_United_States:6920,https://history.army.mil:443/books/wwii/persian/index.htm:810,https://en.wikipedia.org:443/wiki/Southern_United_States:9045,https://en.wikipedia.org:443/wiki/Henley_Royal_Regatta:2720 