quarterback quarterback-0 1211 https://commons.wikimedia.org:443/wiki/Category:Sports_in_Maryland:552 553 554 555 556 557,https://www.commanders.com:443/news/commanders-agree-to-trade-de-montez-sweat-to-chicago-bears:503 504 505 506,https://en.wikipedia.org:443/wiki/New_England_Patriots:10224 10225 10226 10227 10228 10229 10230 10231 10232 10233 10234 10235 10236 10237 10238 10239 10240 10241 10242 10243 10244 10245 10246 10247 10248 10249 10250 10251 10252 10253 10254 10255 10256 10257 10258 10259,https://www.patriots.com:443/news/check-out-the-2016-patriots-color-rush-jerseys-270621:1033,https://en.wikipedia.org:443/wiki/2023_Big_Ten_Conference_football_season:4325,https://en.wikipedia.org:443/wiki/Fenway_Park:7483 7484 7485,https://www.patriots.com:443/news/ben-coates-elected-to-patriots-hall-of-fame-140866:1288,https://en.wikipedia.org:443/wiki/Sports_in_Washington:3581 3582 3583 3584 3585 3586 3587 3588 3589,https://en.wikipedia.org:443/wiki/Americans:6749,https://www.azcentral.com:443/story/sports/nfl/cardinals/2015/09/06/nfls-dynasties-decade/71605710/:578 579 580 581 582 583,https://www.patriots.com:443/team/players-roster/:700,https://en.wikipedia.org:443/wiki/National_Football_League:5776 5777 5778 5779 5780 5781 