race race-0 20829 https://en.wikipedia.org:443/wiki/National_Football_League:5786 5787 5788 5789 5790 5791,https://en.wikipedia.org:443/wiki/Sports_in_Maryland:4172 4173 4177 4178 4179 4180,https://www.sportsbusinessjournal.com:443/Archive/Sections/International.aspx:794 795,https://www.sportsbusinessjournal.com:443/Daily/Issues/2024/04/29.aspx:731 732,https://www.nytimes.com:443/section/politics:352 353,https://www.nytimes.com:443/section/magazine?page=8:1143,https://www.saturdaydownsouth.com:443/sports/ranking-top-25-rivalries-college-sports-2023/:1279,https://en.wikipedia.org:443/wiki/Antisemitism_in_the_United_States:3531,https://en.wikipedia.org:443/wiki/Ice_hockey:6151,https://en.wikipedia.org:443/wiki/Sports_in_Estonia:1539 1543 1544 1545 1546 1547 1548 1549 1550 1551 1552 1553 1554 1555 1556 1557 1558 1559,https://en.wikipedia.org:443/wiki/USA_Water_Ski_%26_Wake_Sports:244,https://en.wikipedia.org:443/wiki/Sports_in_South_Carolina:1367 1368 1369 1370 1371 1375 1376 1377 1378,https://en.wikipedia.org:443/wiki/Soccer_in_the_United_States:6929 6930 6931,https://www.nytimes.com:443/2019/06/19/us/newsom-native-american-apology.html:640,https://www.purdue.edu:443/newsroom/releases/2016/Q3/purdue-university-sets-records-for-largest-enrollment-and-highest-graduation-rates-ever.html:383,https://en.wikipedia.org:443/wiki/Sports_in_Ethiopia:437 438,https://www.nytimes.com:443/2024/04/27/us/politics/trump-trial-fact-check.html:634 635 636 637 638 639 640 641 642,https://www.nytimes.com:443/live/2024/05/02/us/biden-trump-campaign:1931 1932 1933 1934,https://en.wikipedia.org:443/wiki/Sports_in_Arizona:974 977 978 979 980,https://www.thetimes.co.uk:443/article/susan-hall-tory-mayoral-candidate-liked-tweet-praising-enoch-powell-zqsr6lvfk:261 262,https://www.nytimes.com:443/2022/02/11/sports/horse-racing/medina-spirit-kentucky-derby-necropsy.html?searchResultPosition=2:512 513 514 515 516 517 521 522 523 524 525 526 527 528,https://en.wikipedia.org:443/wiki/Sports_in_South_Korea:1705 1706,https://www.azcentral.com:443/story/sports/nfl/cardinals/2015/09/06/nfls-dynasties-decade/71605710/:584,https://en.wikipedia.org:443/wiki/Constitution_of_the_United_States:10275 10276 10277 10278 10279 10280,https://en.wikipedia.org:443/wiki/MLB_Network:3659 3661 3662 3663,https://www.themarshallproject.org:443/2022/06/14/what-did-fbi-data-say-about-crime-in-2021-it-s-too-unreliable-to-tell:882 883,https://en.wikipedia.org:443/wiki/National_Federation_of_State_High_School_Associations:1146,https://en.wikipedia.org:443/wiki/Environmental_issues_in_the_United_States:3072 3073 3074 3075,https://en.wikipedia.org:443/wiki/U.S._state:4037 4038 4039 4040 4041,https://en.wikipedia.org:443/wiki/Spanish%E2%80%93American_War:11360 11361 11362 11363 11364 11365 11366 11367 11368 11369 11370,https://en.wikipedia.org:443/wiki/Boston_Red_Sox:8327 8328 8329 8330 8331 8332 8333 8334 8335 8336 8337 8338 8339,https://en.wikipedia.org:443/wiki/Association_of_International_Olympic_Winter_Sports_Federations:624 625,https://en.wikipedia.org:443/wiki/Tribal_sovereignty_in_the_United_States:3471,https://en.wikipedia.org:443/wiki/Indiana:8044 8045 8046 8047 8048 8049 8050 8051 8052 8053 8054 8055 8056 8057 8058 8059 8060 8061 8062 8063 8069 8070 8071 8072,https://en.wikipedia.org:443/wiki/American_Revolution:12585 12586 12587 12588 12589 12590 12591 12592,https://www.nytimes.com:443/2024/04/17/opinion/venezuela-oil-sanctions.html:535,https://en.wikipedia.org:443/wiki/USA_Baseball:4868,https://www.nytimes.com:443/2024/05/02/us/politics/abortion-ballot-measures-2024.html:863 864 865 866 867 868 869 870 871 872 873,https://www.nytimes.com:443/2024/05/02/business/horse-racing-deaths-kentucky-derby.html:1037 1038 1039 1040 1041 1042 1043 1044 1045 1046 1047 1050 1051 1052 1053 1054 1055 1063 1064 1065 1066 1067 1068 1069 1070 1071 1072 1073 1074 1075 1076 1077 1078 1079 1080 1081,https://en.wikipedia.org:443/wiki/Perpetual_Union:2651 2652 2653 2654 2655 2656 2657,https://www.nytimes.com:443/ca/:560 561 562,https://en.wikipedia.org:443/wiki/List_of_mountains_of_the_United_States:8860,https://www.theguardian.com:443/sport/2004/jul/27/cricket.comment:611 612,https://www.nytimes.com:443/2024/03/30/opinion/abortion-drug-supreme-court.html:589,https://www.sportsbusinessjournal.com:443/Journal/Issues/2024/03/04.aspx:768,https://en.wikipedia.org:443/wiki/College_athletics_in_the_United_States:3911 3912 3913,https://www.nytimes.com:443/2024/05/04/us/kentucky-derby-race-photos.html:327 328 329 330 331 332,https://www.nytimes.com:443/2024/05/04/world/europe/sadiq-khan-london-mayor-results.html:560,https://www.nytimes.com:443/section/us:339,https://en.wikipedia.org:443/wiki/Sports_in_Kentucky:3484 3485 3486 3487 3493 3494 3495 3496 3497 3499 3500 3501 3502 3503 3504 3505 3506 3507 3508 3509 3510 3511 3512 3513,https://en.wikipedia.org:443/wiki/Sports_in_the_United_States:3807 3808 3809 3810 3811 3812 3814 3815 3816 3817,https://en.wikipedia.org:443/wiki/USA_Cricket:1478,https://en.wikipedia.org:443/wiki/Timeline_of_United_States_inventions_(after_1991):2208 2209 2210 2211,https://www.nytimes.com:443/section/business:385,https://en.wikipedia.org:443/wiki/Mayoralty_in_the_United_States:636 637 638,https://www.nytimes.com:443/interactive/2023/us/politics/presidential-candidates-2024.html:486 487 488 489 490 491,https://en.wikipedia.org:443/wiki/Beach_volleyball:3667,https://nces.ed.gov:443/blogs/nces/post/where-can-i-find-information-about-the-condition-of-education-in-the-united-states:333,https://en.wikipedia.org:443/wiki/Sports_in_France:1940 1941 1942 1943 1944 1945 1946 1947 1948 1949 1950 1951 1952 1953 1954 1955 1956 1957 1958 1959 1960 1961 1962 1963 1964 1965 1966 1967 1968 1969 1970 1971 1972,https://www.independent.co.uk:443/tv/travel-smart:859 860,https://news.gallup.com:443/poll/224864/football-americans-favorite-sport-watch.aspx:851 852 853,https://www.nytimes.com:443/2024/05/04/us/politics/trump-biden-campaign-young-voters.html:667 668 669 670 671 672 673 674 675 676 677,https://en.wikipedia.org:443/wiki/The_Washington_Post:5473 5474 5475 5476,https://en.wikipedia.org:443/wiki/Baseball:7652,https://en.wikipedia.org:443/wiki/United_States_Polo_Association:1186,https://www.nytimes.com:443/2023/04/14/us/politics/mike-pompeo-president-2024.html:447 448 449 450 451 452 453 454 455 456,https://en.wikipedia.org:443/wiki/Speaker_of_the_United_States_House_of_Representatives:4065,https://www.usatoday.com:443/for-subscribers/:210,https://en.wikipedia.org:443/wiki/Sports_in_Brunei:1655 1656,https://www.theguardian.com:443/sport/2018/jan/23/aly-raisman-olympic-committee-larry-nassar-abuse-case:416 417,https://en.wikipedia.org:443/wiki/Sports_in_Belize:853 854 855 856 857 858 859 860 861,https://en.wikipedia.org:443/wiki/Democratic_Party_(United_States):10597 10598 10599 10600 10601 10602 10603 10604 10605 10606 10607 10608 10609 10610 10611 10612 10613,https://en.wikipedia.org:443/wiki/New_England:7618 7619 7620 7621 7622 7623 7624 7625 7626 7627 7628 7629 7630 7631 7633,https://en.wikipedia.org:443/wiki/Disc_golf_in_the_United_States:866,https://en.wikipedia.org:443/wiki/Southern_United_States:9061 9062 9063 9064 9065 9066 9067 9068 9069 9070 9071 9072 9073 9074 9075 9076 9077 9078 9079 9080 9095 9096 9097 9098,https://en.wikipedia.org:443/wiki/Inter_Miami:6144 6145 6146 6147,https://en.wikipedia.org:443/wiki/United_States_dollar:6107 6108 6109 6110,https://en.wikipedia.org:443/wiki/Major_Arena_Soccer_League:2001,https://www.nytimes.com:443/2021/07/07/style/how-the-french-manicure-made-its-comeback.html:565,https://en.wikipedia.org:443/wiki/Horse_racing_in_the_United_States:1195 1196 1197 1198 1199 1200 1201 1202 1203 1204 1205 1206 1207 1208 1209 1210 1211 1212 1213 1214 1215 1216 1217 1218 1219 1220 1221 1222 1223 1225 1226 1227 1228 1230 1231 1232 1233 1234 1235 1236 1237 1238 1239 1240 1241 1242 1243 1244 1245 1246 1247 1248 1249 1250 1251 1272 1273 1274 1275 1276 1277 1278 1279 1280 1281 1282 1283 1284 1285 1286 1287 1288 1289 1290 1291 1292 1293 1294 1295 1296 1297 1298 1299 1300 1301 1302 1303 1304 1305 1306 1307 1308 1309 1310 1311 1312 1313 1314 1315 1316 1317 1318 1319 1320 1321 1322 1323 1324 1325 1326 1327 1328 1329 1330 1331 1332 1333 1334 1335 1336 1337 1338 1339 1340 1341 1342 1343 1344 1345 1346 1347 1348 1349,https://en.wikipedia.org:443/wiki/NBA:5618 5619 5620,https://en.wikipedia.org:443/wiki/International_rankings_of_the_United_States:1262 1263 1264 1265,https://www.telegraph.co.uk:443/news/worldnews/asia/afghanistan/8693247/Secret-peace-talks-between-US-and-Taliban-collapse-over-leaks.html:504,https://en.wikipedia.org:443/wiki/American_exceptionalism:4977 4978 4979 4980 4981,https://en.wikipedia.org:443/wiki/Henley_Royal_Regatta:2725 2726 2727 2728 2729 2730 2731 2732 2733 2734 2735 2736 2737 2738 2739 2740 2741 2742 2743 2744 2745 2746 2747 2748 2749 2750 2752 2753 2754 2755 2756 2757 2758 2759 2760 2761 2762 2763 2764 2765 2766 2767 2768 2769 2770 2771 2772 2773 2774 2775 2776 2777 2778 2779 2780 2781 2782 2783 2784 2785 2786 2787 2788 2789 2790 2791 2792 2793 2794 2795,https://www.indycar.com:443/news/2022/02/02-22-internationaltv:409 410 411 412 414 415 416 417 418 419 420 421 422 423 424 425 426 427 428 429 430 431 432 433,https://en.wikipedia.org:443/wiki/Sports_in_Finland:2484 2485 2487 2488 2489 2490 2491 2492 2493 2494 2495 2496 2497 2498 2499 2500 2501,https://www.gallup.com:443/394505/indicator-life-evaluation-index.aspx:766,https://www.nytimes.com:443/spotlight/podcasts:1584,https://en.wikipedia.org:443/wiki/Template:Sports_in_the_United_States:251,https://en.wikipedia.org:443/wiki/United_States_Aquatic_Sports:711,https://en.wikipedia.org:443/wiki/Red_River_of_the_South:1495,https://news.gallup.com:443/topic/retirement.aspx:561,https://en.wikipedia.org:443/wiki/Basketball_in_the_United_States:958 959 960 961 962 963 964,https://en.wikipedia.org:443/wiki/Americans:6759 6760 6761 6762 6763 6764 6765 6766 6767 6768 6769 6770 6771 6772 6773 6774 6775 6776 6777 6778 6779 6780 6781 6782 6783 6784 6785 6786 6787 6788 6789 6790 6791 6792 6793 6794 6795 6796 6797 6798 6799 6800 6801 6802 6803 6804 6805 6806 6807 6808 6809,https://www.sportsbusinessjournal.com:443/Journal/Issues/2012/04/02/Media/Fox-channel.aspx:953 954,https://en.wikipedia.org:443/wiki/Articles_of_Confederation:5792 5793 5794 5795 5796 5797 5798,https://www.nytimes.com:443/live/2024/05/04/us/biden-trump-campaign:505 506,https://en.wikipedia.org:443/wiki/Columbia_(personification):2166 2167 2168 2169 2170,https://en.wikipedia.org:443/wiki/Sports_in_Poland:2172 2173 2174 2175 2176 2177 2178 2180 2181 2182 2183 2184 2185 2186 2187,https://en.wikipedia.org:443/wiki/USA_Cycling:1057 1058 1059 1060 1061 1062 1063 1064 1065 1066 1067 1068 1069 1070 1071 1072 1073 1074 1075 1076 1077 1078 1079 1080 1081 1082 1083 1084 1085 1086,https://www.nytimes.com:443/2024/05/04/us/politics/biden-insulin-voters-drugs.html:753 754 755 756 757 758 759 760 761,https://en.wikipedia.org:443/wiki/United_States_Lifesaving_Association:470,https://en.wikipedia.org:443/wiki/Supreme_Court_of_the_United_States:12773 12774 12775 12776 12777 12778 12779 12780 12781 12782,https://news.gallup.com:443/vault/203270/gallup-vault-football-rise-spectator-sport.aspx:617,https://en.wikipedia.org:443/wiki/Outline_of_the_history_of_the_United_States:3995 3996 3997,https://en.wikipedia.org:443/wiki/United_States_Olympic_%26_Paralympic_Committee:2909,https://www.nytimes.com:443/2024/05/02/us/blast-mortar-brain-injury-military.html:971,https://www.nytimes.com:443/2024/05/04/nyregion/trump-trial-scandals-testimony.html:998,https://www.nytimes.com:443/spotlight/podcasts?page=6:2421 2422,https://en.wikipedia.org:443/wiki/History_of_the_United_States_(1849%E2%80%931865):4370 4371 4372,https://en.wikipedia.org:443/wiki/Maternal_mortality_in_the_United_States:3849 3850 3851 3852 3853 3854 3855 3856 3857 3858 3859 3860 3861 3862 3863 3864 3865 3866 3867 3868 3869 3870 3871,https://en.wikipedia.org:443/wiki/Sports_in_Venezuela:1736 1737 1740 1741 1742 1743 1744,https://www.nytimes.com:443/2024/05/04/opinion/trump-second-term-illiberalism.html:811 812 813 814 815,https://en.wikipedia.org:443/wiki/Vietnam_War:14057 14058 14059 14060 14061 14062 14063 14064 14065 14066 14067 14068,https://www.nytimes.com:443/2024/04/01/fashion/craft-handmade-umbrella-italy.html:697,https://en.wikipedia.org:443/wiki/2018_Rugby_World_Cup_Sevens:722 723 724 725,https://en.wikipedia.org:443/wiki/Boston:10473 10474 10475 10476 10477 10478 10479,https://www.theguardian.com:443/type/video+tone/comment:595,https://en.wikipedia.org:443/wiki/Carlos_Bocanegra:2107 2108 2109 2110 2111 2112 2113 2114 2115 2116 2117,https://en.wikipedia.org:443/wiki/United_States_Declaration_of_Independence:8561 8562 8563 8564 8565 8566 8567,https://en.wikipedia.org:443/wiki/Education_in_the_United_States:8159 8160 8161 8162 8163 8164 8165 8166 8167 8168 8169 8170 8171 8172 8173 8174 8175 8176,https://en.wikipedia.org:443/wiki/Snowboarding:2905 2906 2907 2908 2909 2910 2911 2914 2915 2916 2917 2918 2919 2920 2921 2922 2923 2924 2925 2926 2927 2928 2929 2930 2931 2932 2933 2934 2935 2936 2937 2938 2939 2940 2941 2942 2943 2944 2945 2946 2947 2948 2949 2950 2951 2952 2953 2954 2955 2956 2957 2958 2959 2960 2961 2962 2963 2964 2965 2966 2967 2968,https://en.wikipedia.org:443/wiki/Boswell:499 500,https://en.wikipedia.org:443/wiki/Rugby_union_at_the_Summer_Olympics:1532 1533 1534 1535 1536 1537,https://www.ft.com:443/content/03cc24ca-dc69-4bd6-8f2d-7509b0f6b6f1:1028,https://en.wikipedia.org:443/wiki/Agriculture_in_the_United_States:4387 4388 4389 4390,https://en.wikipedia.org:443/wiki/History_of_the_United_States_(2008%E2%80%93present):8863 8864 8865 8866 8867 8868 8869 8870 8871 8872 8873 8874 8875 8876 8877 8878 8879 8880 8881 8882 8883 8884 8885 8886 8887 8888 8889 8890 8891 8892,https://en.wikipedia.org:443/wiki/Architecture_of_the_United_States:4487 4488 4489 4490 4491,https://en.wikipedia.org:443/wiki/Sports_teams_in_Virginia:880,https://en.wikipedia.org:443/wiki/Professional_Disc_Golf_Association:1058,https://en.wikipedia.org:443/wiki/United_States_Backgammon_Federation:492 493,https://en.wikipedia.org:443/wiki/U.S._Biathlon_Association:230,https://en.wikipedia.org:443/wiki/Sports_in_Georgia_(country):877 879 880 881,https://en.wikipedia.org:443/wiki/IndyCar_Series:5569 5570 5571 5572 5573 5574 5575 5576 5577 5578 5579 5580 5581 5582 5583 5584 5585 5586 5587 5588 5589 5590 5591 5592 5593 5594 5595 5596 5597 5598 5599 5600 5601 5602 5605 5606 5609 5610 5611 5612 5613 5614 5615 5616 5617 5618 5619 5620 5621 5622 5623 5624 5625 5626 5627 5628 5629 5630 5631 5632 5633 5634 5635 5636 5637 5638 5639 5640 5641 5642 5643 5644 5645 5646 5647 5648 5649 5650 5651 5652 5653 5654 5655 5656 5657 5658 5659 5660 5661 5662 5663 5664 5673 5674 5675 5676 5677 5678 5679 5680 5681 5682 5683 5684 5685 5686 5687 5688 5689 5690 5691 5692 5693 5694 5695 5696 5697 5698 5699 5700 5701 5702 5703 5704 5705 5706 5707 5708 5709 5710 5711 5712 5713 5714 5715 5716 5717 5718 5719 5720 5721 5722 5723 5724 5725 5726 5727 5728 5729 5730 5731 5732 5733 5734 5735 5736 5737 5738 5739 5740 5741 5742 5743 5744 5745 5746 5747 5748 5749 5750 5751 5752 5753 5754 5755 5756 5757 5758 5759 5760 5761 5762 5763,https://en.wikipedia.org:443/wiki/Sports_in_Uruguay:813 814 815 816 817 818 819 820 821,https://en.wikipedia.org:443/wiki/Race_and_maternal_health_in_the_United_States:3164 3165 3166 3167 3168 3169 3170 3171 3172 3173 3174 3175 3176 3177 3178 3179 3180 3181 3182 3183 3184 3185 3186 3187,https://en.wikipedia.org:443/wiki/Sports_in_India:12892 12893 12894 12895 12896 12897 12898 12899 12900 12901 12902 12903 12904 12905 12906 12907 12908 12909 12910 12911 12912 12913 12914 12915 12916 12917 12918 12919 12920 12921 12922 12923 12924 12925 12926 12927 12928 12929 12930 12931 12932 12933 12934 12935 12937 12938 12939 12940 12941 12942 12943 12944 12945 12947 12948 12949 12950 12951 12952 12953 12954 12955 12956 12957 12958 12959 12960 12961 12962 12963 12964 12965 12966 12967 12968,https://www.usatoday.com:443/news/nation/:252,https://en.wikipedia.org:443/wiki/MLS:8070,https://www.nytimes.com:443/section/todayspaper:336 337 338 339 340 341,https://www.nytimes.com:443/subscription:114,https://en.wikipedia.org:443/wiki/College_basketball:4797 4798,https://en.wikipedia.org:443/wiki/Town_meeting:2233,https://www.nytimes.com:443/interactive/2021/07/07/opinion/minimum-corporate-tax.html:498 499 500,https://www.nytimes.com:443/international/:557 558 559,https://en.wikipedia.org:443/wiki/West_Coast_of_the_United_States:2370 2371 2372 2373 2374 2375,https://en.wikipedia.org:443/wiki/U.S._Squash:646,https://theconversation.com:443/the-rise-and-rise-of-ultimate-fighting-and-why-boxing-is-now-so-passe-55910:463,https://en.wikipedia.org:443/wiki/Great_Recession_in_the_United_States:4015 4016 4017 4018,https://en.wikipedia.org:443/wiki/National_symbols_of_the_United_States:1282 1283 1284 1285 1286,https://en.wikipedia.org:443/wiki/Fashion_in_the_United_States:1521 1522 1523 1524 1525,https://www.nytimes.com:443/:675 676 677,https://en.wikipedia.org:443/wiki/Olympic_Games:9465 9466 9467 9468 9469 9470 9471 9472 9473 9474 9475 9476 9477 9478 9479 9480,https://commons.wikimedia.org:443/wiki/Category:Awards_associated_with_sports_of_the_United_States:289,https://en.wikipedia.org:443/wiki/Bodybuilding_in_the_United_States:882,https://en.wikipedia.org:443/wiki/File:Wiki_letter_w_cropped.svg:606,https://en.wikipedia.org:443/wiki/Iroquois:11702,https://en.wikipedia.org:443/wiki/Terrorism_in_the_United_States:9617 9618 9619 9620 9621 9622 9623 9624 9625 9626 9627 9628 9629 9630 9631,https://en.wikipedia.org:443/wiki/Fox_Sports_1:3777 3778 3779 3780 3781 3782 3783 3784 3785 3786 3787 3789 3790 3791 3792 3793 3794 3795 3796 3797 3798 3799 3800 3803 3804 3805 3806 3807 3808 3809 3810 3811 3812 3813 3814 3815 3816 3817 3818 3819,https://www.nytimes.com:443/section/science?page=9:1775,https://en.wikipedia.org:443/wiki/Association_of_Summer_Olympic_International_Federations:1026 1027,https://en.wikipedia.org:443/wiki/Culture_of_the_United_States:8729 8730 8731 8732 8733 8734 8735 8736 8737 8738 8739 8740 8741 8742 8743 8744 8745 8746 8747 8748 8749 8762,https://en.wikipedia.org:443/wiki/List_of_U.S._state_statutory_codes:797,https://en.wikipedia.org:443/wiki/History_of_the_United_States_(1945%E2%80%931964):6742 6743 6744 6745 6746 6747 6748 6749 6750 6751,https://www.nytimes.com:443/2024/05/04/style/nonalcoholic-drinks-kids-mocktail.html:592,https://en.wikipedia.org:443/wiki/Literacy_in_the_United_States:4645 4646 4647 4648 4649 4650 4651 4652 4653,https://en.wikipedia.org:443/wiki/Volleyball:3836,https://www.theguardian.com:443/sport/2017/aug/19/will-mcgregor-v-mayweather-save-american-boxing-or-bury-it?CMP=share_btn_link:1173 1174,https://en.wikipedia.org:443/wiki/Comparison_of_U.S._state_and_territory_governments:1489,https://en.wikipedia.org:443/wiki/List_of_U.S._states_and_territories_by_life_expectancy:1774 1775 1776 1777 1778 1779 1780 1781 1782,https://www.nytimes.com:443/article/senate-races-2024-election.html:867 868 869 870 871 872 873 874 875 876 877 878 879 880 881 882 883 884 885 886 887 888 889,https://en.wikipedia.org:443/wiki/Colonial_history_of_the_United_States:10490 10491 10492 10493 10494 10495 10496 10497 10498 10499 10500 10501 10502 10504 10505 10506 10507,https://www.nytimes.com:443/2024/05/03/opinion/nuclear-power-energy.html:600 601,https://en.wikipedia.org:443/wiki/History_of_the_United_States_debt_ceiling:2188 2189 2190 2191,https://en.wikipedia.org:443/wiki/Cold_War:15547 15548 15549 15550 15551 15552 15553 15554 15555 15556 15557 15558 15559 15560 15561 15562 15563 15564 15565 15566 15567 15568,https://www.nytimes.com:443/spotlight/graphics?page=10:1757 1758 1759 1760 1761 1762 1763,https://www.nytimes.com:443/spotlight/nytimesineducation:894 895 896,https://en.wikipedia.org:443/wiki/Sports_in_Armenia:2002 2003 2004 2005 2006,https://en.wikipedia.org:443/wiki/Template_talk:United_States_topics:1650 1651 1652,https://www.theatlantic.com:443/magazine/archive/2023/01/homelessness-affordable-housing-crisis-democrats-causes/672224/:1130,https://en.wikipedia.org:443/wiki/Immigrant_health_care_in_the_United_States:4714 4715,https://www.nytimes.com:443/news-event/2024-election:389 390 391 392 393,https://en.wikipedia.org:443/wiki/Cycling_in_the_United_States:879 880 881,https://www.cnn.com:443/2020/09/26/politics/supreme-court-conservative/index.html:1058,https://en.wikipedia.org:443/wiki/Summer_Olympic_Games:4549 4550 4551 4552 4553 4554 4555 4556 4557 4558 4559,https://en.wikipedia.org:443/wiki/Sports_in_Washington:3591 3592 3593 3594 3595,https://www.nytimes.com:443/section/sports:204 205 206 207 208 209 210,https://en.wikipedia.org:443/wiki/Fenway_Park:7493 7494 7495 7499 