raider raider-0 1495 https://en.wikipedia.org:443/wiki/2023_Big_Ten_Conference_football_season:4336 4337,https://en.wikipedia.org:443/wiki/Spectrum_Sports:711,https://en.wikipedia.org:443/wiki/United_States_Declaration_of_Independence:8578,https://www.nfl.com:443/teams/indianapolis-colts/:558 559,https://www.nfl.com:443/teams/baltimore-ravens/:554 555,https://www.azcentral.com:443/story/sports/nfl/cardinals/2015/09/06/nfls-dynasties-decade/71605710/:586,https://www.nfl.com:443/teams/philadelphia-eagles/:569 570,https://en.wikipedia.org:443/wiki/Fenway_Park:7506 7507 7508 7509 7510,https://en.wikipedia.org:443/wiki/New_England_Patriots:10277 10278 10279 10280 10281 10282 10283 10284 10285 10286 10287 10288 10289 10290 10291 10292 10293 10294 10295 10296 10297 10298,https://www.nfl.com:443/standings/:668 669 670 671,https://www.nfl.com:443/standings/conference/2023/REG:600 601 602 603,https://en.wikipedia.org:443/wiki/Sports_in_Kentucky:3519,https://en.wikipedia.org:443/wiki/Major_professional_sports_teams_of_the_United_States_and_Canada:1508 1509 1510 1511,https://en.wikipedia.org:443/wiki/Outline_of_the_history_of_the_United_States:3999,https://en.wikipedia.org:443/wiki/Southern_United_States:9110,https://www.nfl.com:443/teams/seattle-seahawks/:547 548,https://en.wikipedia.org:443/wiki/Terrorism_in_the_United_States:9686 9687,https://www.sbnation.com:443/2014/10/5/6916597/nba-new-tv-deal-espn-turner-24-billion:566,https://en.wikipedia.org:443/wiki/National_Football_League:5798 5799 5800 5801 