randi randi-0 1201 https://www.nytimes.com:443/2024/05/02/style/central-park-hat-luncheon.html:663 664,https://en.wikipedia.org:443/wiki/U.S._state:4051,https://en.wikipedia.org:443/wiki/2023_Big_Ten_Conference_football_season:4355,https://en.wikipedia.org:443/wiki/IndyCar_Series:5823,https://cooking.nytimes.com:443/recipes/1023559-ina-gartens-bourbon-chocolate-pecan-pie:1283,https://en.wikipedia.org:443/wiki/New_England_Patriots:10322 10323 10324 10325 10326 10327 10328 10329 10330 10331 10332,https://www.azcentral.com:443/story/sports/nfl/cardinals/2015/09/06/nfls-dynasties-decade/71605710/:588,https://en.wikipedia.org:443/wiki/Vietnam_War:14113,https://en.wikipedia.org:443/wiki/List_of_current_United_States_district_judges:8648,https://en.wikipedia.org:443/wiki/Great_Recession_in_the_United_States:4027,https://en.wikipedia.org:443/wiki/Sports_in_Finland:2512,https://www.nytimes.com:443/section/books/review?page=7:1181,https://en.wikipedia.org:443/wiki/List_of_mountains_of_the_United_States:8886,http://www.redsoxdiehard.com:80/players/unifnums.html:3901 3902 3903 3904 3905 3906 3907 3908,https://en.wikipedia.org:443/wiki/Beach_volleyball:3681 3682,https://en.wikipedia.org:443/wiki/Jack_Nicklaus:7265 