recept recept-0 2011 https://en.wikipedia.org:443/wiki/Antisemitism_in_the_United_States:3572 3573,https://www.nytimes.com:443/section/fashion/weddings:784,https://www.tlc.com:443/weddings/top-trends-for-spring-wedding-2024:525 526 527 528 529,https://www.nytimes.com:443/2024/05/02/us/politics/abortion-ballot-measures-2024.html:887,https://www.nytimes.com:443/column/field-notes:139,https://en.wikipedia.org:443/wiki/Culture_of_the_United_States:8854,https://www.nytimes.com:443/2024/05/04/us/politics/biden-insulin-voters-drugs.html:778,https://en.wikipedia.org:443/wiki/Cold_War:15789,https://www.nytimes.com:443/interactive/2023/us/politics/presidential-candidates-2024.html:508,https://en.wikipedia.org:443/wiki/Olympic_Games:9539,https://www.nytimes.com:443/2023/04/14/us/politics/mike-pompeo-president-2024.html:464,https://www.nytimes.com:443/2024/05/04/us/politics/trump-biden-campaign-young-voters.html:692,https://en.wikipedia.org:443/wiki/Volleyball:3896,https://www.nytimes.com:443/section/education:525,https://en.wikipedia.org:443/wiki/Cable_television:2750 2751 2752,https://en.wikipedia.org:443/wiki/Bureau_of_Diplomatic_Security:3394,https://www.patriots.com:443/news/ben-coates-elected-to-patriots-hall-of-fame-140866:1327 1328 1329 1330 1331 1332 1333 1334 1335 1336 1337 1338 1339,https://www.nytimes.com:443/2017/06/26/health/undocumented-immigrants-health-care.html:881,https://en.wikipedia.org:443/wiki/National_Football_League:5859 5860,https://www.azcentral.com:443/story/sports/nfl/cardinals/2015/09/06/nfls-dynasties-decade/71605710/:593,https://en.wikipedia.org:443/wiki/New_England_Patriots:10495 10496 10497 10498 10499 10500 10501,https://www.nytimes.com:443/article/senate-races-2024-election.html:913,https://en.wikipedia.org:443/wiki/Sports_in_Syria:1446,https://www.nytimes.com:443/2024/04/27/us/politics/trump-trial-fact-check.html:650,https://en.wikipedia.org:443/wiki/Supreme_Court_of_the_United_States:12887,https://en.wikipedia.org:443/wiki/Sergeant_at_Arms_of_the_United_States_Senate:1607 