recoveri recoveri-0 2181 https://en.wikipedia.org:443/wiki/Cold_War:15825 15826,https://en.wikipedia.org:443/wiki/History_of_the_United_States_(2008%E2%80%93present):9112 9113 9114,https://en.wikipedia.org:443/wiki/History_of_the_United_States_(1945%E2%80%931964):6865,https://www.azcentral.com:443/story/sports/nfl/cardinals/2015/09/06/nfls-dynasties-decade/71605710/:598,https://www.theguardian.com:443/us-news/2019/dec/29/synagogue-stabbings-three-hurt-in-monsey-attack-say-reports:501 502,https://www.law.cornell.edu:443/supremecourt/text/74/700:3873,https://www.nytimes.com:443/books/best-sellers/:1327 1328,https://en.wikipedia.org:443/wiki/Great_Recession_in_the_United_States:4220 4221 4222 4224 4225 4226 4227 4228 4229 4230 4231 4232 4233 4234 4235 4236 4237 4238 4239 4240 4241 4242 4243 4244 4245 4246 4247,https://en.wikipedia.org:443/wiki/Red_River_of_the_South:1524,https://en.wikipedia.org:443/wiki/Environmental_issues_in_the_United_States:3125 3126,https://www.nytimes.com:443/2024/04/22/us/politics/israel-gaza-hamas-war.html:1289,https://www.nytimes.com:443/section/magazine:326,https://en.wikipedia.org:443/wiki/History_of_the_United_States_(1849%E2%80%931865):4469,https://en.wikipedia.org:443/wiki/Southern_United_States:9270,https://en.wikipedia.org:443/wiki/National_Boxing_Association:2286,https://en.wikipedia.org:443/wiki/National_Reconnaissance_Office:3656 3657,https://www.nytimes.com:443/spotlight/visual-investigations:1260,https://en.wikipedia.org:443/wiki/War_in_Afghanistan_(2001%E2%80%932021):15348 15349,https://en.wikipedia.org:443/wiki/Federal_law_enforcement_in_the_United_States:2424 2425 2426,https://www.nytimes.com:443/section/books/review?page=7:1219,https://www.nytimes.com:443/section/magazine?page=8:1171,https://en.wikipedia.org:443/wiki/IndyCar_Series:5869,https://en.wikipedia.org:443/wiki/ISSN_(identifier):1230,https://en.wikipedia.org:443/wiki/Greenhouse_gas_emissions_by_the_United_States:3268 3269,https://en.wikipedia.org:443/wiki/Maternal_mortality_in_the_United_States:4010,https://en.wikipedia.org:443/wiki/Spanish%E2%80%93American_War:11533,https://www.nytimes.com:443/section/books/review:405,https://en.wikipedia.org:443/wiki/Snowboarding:3020 