redskin redskin-0 651 https://en.wikipedia.org:443/wiki/Sports_in_Washington:3647 3648 3649 3650 3651 3652 3653 3654 3655 3656 3657 3658 3659 3660 3661 3662,https://en.wikipedia.org:443/wiki/Major_professional_sports_teams_of_the_United_States_and_Canada:1543 1544 1545,https://en.wikipedia.org:443/wiki/Fenway_Park:7717 7718 7719 7720 7721 7722 7723 7724 7725 7726 7727 7728 7729,https://en.wikipedia.org:443/wiki/Southern_United_States:9284,https://www.azcentral.com:443/story/sports/nfl/cardinals/2015/09/06/nfls-dynasties-decade/71605710/:599,https://en.wikipedia.org:443/wiki/National_Football_League:5886 5887,https://en.wikipedia.org:443/wiki/Sports_in_Maryland:4205 