rememb rememb-0 4368 https://en.wikipedia.org:443/wiki/Sports_in_India:13260,https://www.nytimes.com:443/2024/05/02/us/blast-mortar-brain-injury-military.html:997 998 999,https://nytlicensing.com:443/timesdigest/:648 649,https://en.wikipedia.org:443/wiki/Culture_of_the_United_States:9059,https://en.wikipedia.org:443/wiki/Baseball:7834,https://nytlicensing.com:443/magazines/:879 880,https://en.wikipedia.org:443/wiki/Spanish%E2%80%93American_War:11696 11697,https://en.wikipedia.org:443/wiki/Iroquois:12013,https://en.wikipedia.org:443/wiki/National_Football_League:5963 5964,https://www.forbes.com:443/sites/greatspeculations/2019/09/22/a-strange-new-world-economic-slowdown-liquidity-issues/:658 659,https://en.wikipedia.org:443/wiki/Supreme_Court_of_the_United_States:13108,https://en.wikipedia.org:443/wiki/History_of_the_United_States_(1849%E2%80%931865):4508,https://www.nytimes.com:443/2021/07/07/style/how-the-french-manicure-made-its-comeback.html:583,https://www.azcentral.com:443/story/sports/nfl/cardinals/2015/09/06/nfls-dynasties-decade/71605710/:606,https://www.nytimes.com:443/2024/05/04/us/politics/trump-biden-campaign-young-voters.html:695 696,https://en.wikipedia.org:443/wiki/History_of_the_United_States_(1945%E2%80%931964):6954,https://en.wikipedia.org:443/wiki/United_States_Polo_Association:1218,https://nytlicensing.com:443/content/harvard-health-publishing/:1395 1396,https://www.nytimes.com:443/2024/05/03/world/europe/campus-protests-rorschach-test.html:961,https://www.nytimes.com:443/2024/04/29/realestate/renters-astoria-queens.html:610,https://www.nytimes.com:443/video/last-word:904 905,https://en.wikipedia.org:443/wiki/Wikipedia:File_upload_wizard:1554 1555,https://www.nytimes.com:443/section/politics:357 358,https://www.nytimes.com:443/2024/05/03/arts/design/stanley-stellar-frieze-photography.html:631,https://www.nytimes.com:443/:735,https://www.nytimes.com:443/section/fashion:874,https://en.wikipedia.org:443/wiki/War_in_Afghanistan_(2001%E2%80%932021):15553,https://www.nytimes.com:443/2024/04/24/us/palestinian-family-gaza-war-death.html:1316,https://www.nytimes.com:443/slideshow/2007/12/27/obituaries/notable-obits-slideshow_index.html:37,https://en.wikipedia.org:443/wiki/History_of_the_United_States_(2008%E2%80%93present):9229,https://www.nytimes.com:443/2024/05/03/opinion/us-africa-niger-chad.html:564,https://en.wikipedia.org:443/wiki/American_Sign_Language:5351,https://www.nytimes.com:443/section/fashion?page=9:1861,https://news.gallup.com:443/vault/203270/gallup-vault-football-rise-spectator-sport.aspx:633,https://en.wikipedia.org:443/wiki/The_Washington_Post:5576,https://en.wikipedia.org:443/wiki/Summer_Olympic_Games:4636,https://www.nytimes.com:443/section/obituaries:551,https://en.wikipedia.org:443/wiki/American_Revolution:12945 12946 12947,https://en.wikipedia.org:443/wiki/Boston_Red_Sox:9029 9030,https://www.nytimes.com:443/2024/05/04/us/politics/biden-insulin-voters-drugs.html:792,https://www.nytimes.com:443/2024/05/04/opinion/alexandria-ocasio-cortez.html:1032,https://www.nytimes.com:443/interactive/2024/02/01/magazine/israel-founding-palestinian-conflict.html:1372,https://cooking.nytimes.com:443/recipes/1016295-mint-julep:1421,https://en.wikipedia.org:443/wiki/Antisemitism_in_the_United_States:3629,https://www.nytimes.com:443/international/:609,https://www.saturdaydownsouth.com:443/sports/ranking-top-25-rivalries-college-sports-2023/:1324,https://www.nytimes.com:443/2024/04/24/podcasts/laufey-gen-zs-jazz-icon-sings-for-anxious-generation.html:1538 1539 1540 1541 1542,https://www.nytimes.com:443/2019/06/19/us/newsom-native-american-apology.html:658,https://nytlicensing.com:443/license-our-content/:634 635,https://www.nytimes.com:443/news-event/2024-election:405,https://www.nytimes.com:443/live/2024/05/04/us/biden-trump-campaign:519,https://en.wikipedia.org:443/wiki/Vietnam_War:14488 14489,https://www.nytimes.com:443/section/us:351,https://www.theguardian.com:443/sport/2004/jul/27/cricket.comment:625,https://www.nytimes.com:443/ca/:614,https://www.law.cornell.edu:443/supremecourt/text/74/700:3975 3976 3977,https://www.theatlantic.com:443/magazine/archive/2023/01/homelessness-affordable-housing-crisis-democrats-causes/672224/:1177,https://en.wikipedia.org:443/wiki/Fenway_Park:7778 7779,https://nytlicensing.com:443/:894 895,https://en.wikipedia.org:443/wiki/Soccer_in_the_United_States:7172 