report report-0 27495 https://www.nytimes.com:443/section/books/review:410,https://nytlicensing.com:443/content/harvard-health-publishing/:1397 1398 1399 1400 1401,https://www.tlc.com:443/inside-tlc/TLC-Casting:892,https://www.nytimes.com:443/section/technology:381 382 383,https://en.wikipedia.org:443/wiki/USA_Cricket:1502 1503 1504 1505 1506 1507,https://www.nytimes.com:443/column/global-health:179 180,https://www.usopc.org:443/paralympic-sport-development:238 239,https://en.wikipedia.org:443/wiki/Carlos_Bocanegra:2217 2218,https://www.nytimes.com:443/subscription:120 121 122,https://www.nytimes.com:443/2024/05/03/books/cj-sansom-dead.html:618,https://www.sbnation.com:443/2014/10/5/6916597/nba-new-tv-deal-espn-turner-24-billion:581,https://wtop.com:443/virginia/2020/01/virginia-becomes-38th-state-to-ratify-equal-rights-amendment-but-it-may-be-too-late/:583,https://bleacherreport.com:443/articles/2748217-gsp-vacates-belt-champion-robert-whittaker-will-face-luke-rockhold-at-ufc-221:148 149 150 151 152,https://www.azcentral.com:443/story/sports/nfl/cardinals/2015/09/06/nfls-dynasties-decade/71605710/:607,https://www.nytimes.com:443/section/nyregion?page=4:900 901 902,https://www.nytimes.com:443/live/2024/05/03/world/israel-gaza-war-hamas:1423 1424 1425 1426,https://en.wikipedia.org:443/wiki/Environmental_issues_in_the_United_States:3206 3207 3208 3209 3210 3211 3212 3213 3214 3215 3216 3217,https://nces.ed.gov:443/blogs/nces/post/where-can-i-find-information-about-the-condition-of-education-in-the-united-states:343 344 345 346 347 348,https://www.nytimes.com:443/spotlight/podcasts?page=6:2486 2487 2488 2489,https://www.nytimes.com:443/2009/01/05/opinion/05krugman.html:436,https://en.wikipedia.org:443/wiki/Powers_of_the_president_of_the_United_States:2762 2763 2764 2765 2766 2767 2768 2769,https://en.wikipedia.org:443/wiki/Democratic_Party_(United_States):10910 10911 10912 10913 10914 10915,https://en.wikipedia.org:443/wiki/Greenhouse_gas_emissions_by_the_United_States:3368 3369 3370 3371 3372 3373 3374 3375 3376,https://www.nytimes.com:443/live/2024/05/04/world/israel-gaza-war-hamas:1443 1444,https://en.wikipedia.org:443/wiki/Cold_War:16114 16115 16116 16117 16118 16119 16120 16121 16122 16124 16125 16126 16127 16128,https://www.nytimes.com:443/2021/08/16/world/asia/afghanistan-taliban-video.html:629 630 631 632,https://en.wikipedia.org:443/wiki/History_of_the_United_States_debt_ceiling:2281 2282 2283 2284,https://en.wikipedia.org:443/wiki/Supreme_Court_of_the_United_States:13137 13138 13139 13140 13141 13142 13143 13144 13145 13146 13147 13148 13149 13150 13151 13152 13153 13154 13155 13156 13157 13158 13159 13160 13161 13162 13163 13164 13165 13166 13167 13168 13169 13170,https://www.nytimes.com:443/2017/06/26/health/undocumented-immigrants-health-care.html:890 891 892,https://www.nytimes.com:443/2019/01/31/opinion/letters/letters-to-editor-new-york-times-women.html:478,https://en.wikipedia.org:443/wiki/Perpetual_Union:2758 2759,https://en.wikipedia.org:443/wiki/USA_Baseball:4952 4953,https://news.gallup.com:443/vault/203270/gallup-vault-football-rise-spectator-sport.aspx:634 635,https://www.nytimes.com:443/by/emily-cochrane:311 312 313,https://www.nytimes.com:443/2019/06/19/us/newsom-native-american-apology.html:662,https://www.theguardian.com:443/sport/nhl:554,https://www.nytimes.com:443/2024/05/04/opinion/gaza-child-deaths.html:327,https://en.wikipedia.org:443/wiki/Rugby_union_at_the_Summer_Olympics:1567 1568 1569,https://www.nytimes.com:443/2024/04/27/us/politics/trump-trial-fact-check.html:664 665 666 667 668 669,https://en.wikipedia.org:443/wiki/United_States_men%27s_national_soccer_team:6578 6579 6580 6581 6582 6583 6584 6585 6586 6587 6588 6589 6590 6591 6592 6593 6594 6595,https://www.nytimes.com:443/2024/05/04/world/middleeast/cindy-mccain-gaza-famine.html:512 513,https://en.wikipedia.org:443/wiki/New_England_Patriots:10748 10749 10750 10751 10752 10753 10754 10755 10756 10757 10758 10759 10761 10762 10763 10764,https://www.theguardian.com:443/world/2001/oct/27/afghanistan.terrorism6:490 491,https://en.wikipedia.org:443/wiki/Jack_Nicklaus:7438 7439,https://www.nytimes.com:443/section/realestate:565,https://www.nytimes.com:443/2024/04/20/health/seniors-home-equity-mortgages.html:688 689,https://www.theguardian.com:443/sport/2004/jul/27/cricket.comment:626,https://en.wikipedia.org:443/wiki/Education_in_the_United_States:8479 8480 8481 8482 8483 8484 8485 8486 8487 8488 8489 8490 8491 8492 8493 8494 8495 8496 8497 8498 8499 8500 8501 8502 8503 8504 8505 8506 8507 8508 8509 8510 8511 8512 8513 8514 8515 8516 8517 8518,https://nytlicensing.com:443/:898 899 900,https://www.theguardian.com:443/type/video+tone/comment:609,https://en.wikipedia.org:443/wiki/Housing_in_the_United_States:1319 1320 1321 1322 1323 1324 1325 1326,https://driveelectric.gov:443/stations-growth?level_2=true&amp;dc_fast=true&amp;available=true&amp;start_month=2021-01&amp;end_month=2024-04:190,https://www.nytimes.com:443/section/opinion?page=5:764,https://en.wikipedia.org:443/wiki/Fox_Sports_1:3939 3940 3941 3942 3943 3944 3945 3946 3947 3948 3949 3950 3951 3952,https://www.sportsbusinessjournal.com:443/Archive/Sections/International.aspx:816 817,https://en.wikipedia.org:443/wiki/American_exceptionalism:5101 5102 5103 5104,https://www.nytimes.com:443/interactive/2021/07/07/opinion/minimum-corporate-tax.html:524,https://en.wikipedia.org:443/wiki/Consolidated_city-county:2806,https://www.tlc.com:443/parenting/are-men-or-women-more-likely-to-want-kids-study:577 578,https://www.nytimes.com:443/2024/05/03/nyregion/trump-trial-hope-hicks-takeaways.html:606 607 608 609,https://www.nytimes.com:443/2014/11/11/technology/obama-net-neutrality-fcc.html:650,https://www.theguardian.com:443/info/privacy:178,https://www.theguardian.com:443/uk/2010/may/04/sainsburys-sponsors-paralympic-games:340,https://en.wikipedia.org:443/wiki/Iroquois:12048 12049 12050 12051,https://en.wikipedia.org:443/wiki/Maternal_mortality_in_the_United_States:4053 4054 4055 4056 4057 4058 4059 4060 4061 4062 4063 4064 4065 4066 4067 4068 4069 4070 4071 4072 4073 4074 4075 4076 4077 4078 4079,https://www.nytimes.com:443/section/education:534 535 536 537 538 539,https://www.nytimes.com:443/interactive/2024/nyregion/trump-manhattan-criminal-trial-witnesses.html:619,https://en.wikipedia.org:443/wiki/American_League:1906,https://nytlicensing.com:443/license-our-content/:637,https://www.nytimes.com:443/interactive/2018/08/25/opinion/sunday/student-debt-loan-default-college.html:408,https://en.wikipedia.org:443/wiki/West_Coast_of_the_United_States:2446 2447 2448,https://www.nytimes.com:443/2024/04/17/opinion/venezuela-oil-sanctions.html:560,https://www.nytimes.com:443/section/health?page=7:1476 1477 1478,https://en.wikipedia.org:443/wiki/United_States_dollar:6285 6286 6287 6288 6289,https://www.nytimes.com:443/interactive/2024/02/01/magazine/israel-founding-palestinian-conflict.html:1375,https://en.wikipedia.org:443/wiki/Agriculture_in_the_United_States:4497 4498 4499 4500 4501 4502 4503 4504 4505 4506 4507 4508 4509 4510,https://www.cbo.gov:443/publication/53348:233 234,https://www.nytimes.com:443/news-event/weather-climate:385 386,https://www.patriots.com:443/cheerleaders/pat-patriot:642,https://en.wikipedia.org:443/wiki/Sports_in_South_Carolina:1408,https://www.nytimes.com:443/news-event/israel-hamas-gaza:566,https://en.wikipedia.org:443/wiki/Antisemitism_in_the_United_States:3638 3639 3640 3641 3642 3643 3644 3645 3646 3647 3648 3649 3650 3651 3652 3653 3654 3655 3656 3657 3658 3659 3660 3661 3662 3663 3664 3665 3666,https://www.nytimes.com:443/2023/04/14/us/politics/mike-pompeo-president-2024.html:468 469,https://www.usatoday.com:443/story/news/politics/2022/08/04/krysten-sinema-inflation-reduction-act-senator-democrats-vote/10234906002/:369,https://en.wikipedia.org:443/wiki/Associate_Justice_of_the_Supreme_Court_of_the_United_States:2176 2177 2178,https://www.sportsbusinessjournal.com:443/Articles/2023/10/23/mls-sets-attendance-record-for-season:652,https://en.wikipedia.org:443/wiki/Timeline_of_United_States_inventions_(after_1991):2280 2281,https://en.wikipedia.org:443/wiki/National_League_(baseball):3011 3012 3013,https://ww2.arb.ca.gov:443/our-work/programs/low-carbon-fuel-standard/about:385,https://www.nytimes.com:443/2024/05/02/style/central-park-hat-luncheon.html:678 679,https://www.nytimes.com:443/2023/11/29/business/dealbook/kamala-harris-biden-voters.html:540,https://en.wikipedia.org:443/wiki/Template_talk:United_States_topics:1765 1766 1767 1768 1769 1770,https://en.wikipedia.org:443/wiki/Wikipedia:File_upload_wizard:1563,https://www.sportsbusinessjournal.com:443/Subscribe/Subscription-Landing.aspx:734 735,https://en.wikipedia.org:443/wiki/Boston_Red_Sox:9058 9059 9060 9061 9062 9063 9064,https://en.wikipedia.org:443/wiki/Sports_in_Venezuela:1785 1786,https://www.gallup.com:443/corporate/216134/media-inquiries.aspx:413 414,https://en.wikipedia.org:443/wiki/College_basketball:4929 4930 4931,https://www.nytimes.com:443/2024/05/04/world/europe/russia-soldiers-women.html:875 876 877 878 879,https://www.gallup.com:443/394505/indicator-life-evaluation-index.aspx:798,https://www.forbes.com:443/2008/09/09/mls-soccer-beckham-biz-sports-cz_kb_0909mlsvalues.html:339,https://en.wikipedia.org:443/wiki/International_rankings_of_the_United_States:1337 1338 1339 1340 1341 1342 1343 1344 1345 1346 1347 1348 1349,https://en.wikipedia.org:443/wiki/Hawaiian_home_land:714 715,https://www.nytimes.com:443/2024/05/03/world/europe/campus-protests-rorschach-test.html:970 971 972 973,https://www.nytimes.com:443/2024/05/02/opinion/israel-saudi-arabia.html:871 872,https://www.patriots.com:443/team/players-roster/:724 725 726 727,https://www.independent.co.uk:443/tv/travel-smart:890,https://en.wikipedia.org:443/wiki/Federal_tribunals_in_the_United_States:1440,https://en.wikipedia.org:443/wiki/Snowboarding:3052,https://www.theguardian.com:443/sport/2018/jan/23/aly-raisman-olympic-committee-larry-nassar-abuse-case:438,https://en.wikipedia.org:443/wiki/Vietnam_War:14517 14518 14519 14520 14521 14522 14523 14524 14525 14526 14527 14528 14529 14530 14531 14532 14533 14534 14535 14536 14537 14538 14539 14540 14541 14544 14545 14546 14547 14548 14549 14550 14551 14552 14553 14554 14555 14556 14557 14558 14559 14560 14561 14562,https://en.wikipedia.org:443/wiki/Terrorism_in_the_United_States:9819 9820 9821 9822 9823 9824 9825 9826 9827 9828 9829 9830 9831 9832 9833 9834 9835 9836 9837 9842 9843 9844 9845,https://www.nytimes.com:443/interactive/2024/05/03/us/ucla-protests-encampment-violence.html:847 849,https://www.nytimes.com:443/by/pamela-paul:321,https://en.wikipedia.org:443/wiki/Henley_Royal_Regatta:3034 3035 3036,https://www.nytimes.com:443/news-event/2024-election:407,https://en.wikipedia.org:443/wiki/United_States_federal_civil_service:2046 2047 2048,https://en.wikipedia.org:443/wiki/United_States_at_the_FIFA_Confederations_Cup:681 682 683 684 685 686 687 688 689 690 691 692 693 694 695,https://en.wikipedia.org:443/wiki/Time_in_the_United_States:1470,https://www.businessinsider.com:443/real-estate:1078 1079 1080,https://en.wikipedia.org:443/wiki/United_States_Attorney:1695,https://en.wikipedia.org:443/wiki/U.S._Immigration_and_Customs_Enforcement:5116 5117 5118 5119 5120 5121 5122 5123 5126 5127 5128 5129 5130,https://dcp.psc.gov:443/ccbulletin/articles/Reserve_Update.aspx:230,https://en.wikipedia.org:443/wiki/Sports_in_Samoa:1298,https://en.wikipedia.org:443/wiki/Articles_of_Confederation:6007 6008 6009,https://www.nytimes.com:443/2024/05/02/us/politics/abortion-ballot-measures-2024.html:899 900 901,https://www.nytimes.com:443/2024/05/04/us/kentucky-derby-race-photos.html:342,https://www.nytimes.com:443/video:357 358,https://en.wikipedia.org:443/wiki/Town_meeting:2313 2314,https://en.wikipedia.org:443/wiki/U.S._state:4200 4201 4202 4203,https://www.nytimes.com:443/2024/05/04/us/politics/biden-insulin-voters-drugs.html:794 795 796,https://www.nytimes.com:443/2024/05/04/us/politics/trump-biden-campaign-young-voters.html:698,https://www.nytimes.com:443/2013/01/12/opinion/is-this-the-afghan-wars-last-chapter.html?_r=3&amp;:329,https://theconversation.com:443/the-rise-and-rise-of-ultimate-fighting-and-why-boxing-is-now-so-passe-55910:485,https://en.wikipedia.org:443/wiki/Bureau_of_Diplomatic_Security:3440 3441 3442 3443 3444 3445 3446 3447 3448 3449 3450 3451 3452 3453 3454 3455 3456 3457 3458 3459 3460 3461 3462 3463 3464,https://www.nytimes.com:443/section/jobs:277,https://en.wikipedia.org:443/wiki/Uniform_act:688,https://www.nytimes.com:443/2024/05/04/business/energy-environment/tesla-electric-vehicles-supercharger.html:829 830,https://www.nytimes.com:443/2024/04/24/us/palestinian-family-gaza-war-death.html:1320 1321 1322 1323 1324,https://www.nytimes.com:443/column/out-there:240 241 242 243,https://www.nytimes.com:443/2024/04/10/style/rishi-sunak-adidas-sambas.html:416,https://en.wikipedia.org:443/wiki/Great_Recession_in_the_United_States:4320 4321 4322 4323 4324 4325 4326,https://www.nytimes.com:443/subscription/home-delivery:66,https://www.ft.com:443/content/03cc24ca-dc69-4bd6-8f2d-7509b0f6b6f1:1058,https://en.wikipedia.org:443/wiki/Francis_Olympic_Field:1715,https://en.wikipedia.org:443/wiki/Culture_of_the_United_States:9089 9090 9091 9092 9093 9094 9095 9096 9097 9098 9099 9100 9101 9102 9103 9104,https://www.nytimes.com:443/2024/04/18/nyregion/trump-trial-jury-hush-money.html:484 485,https://www.nytimes.com:443/video/us/100000007348445/breonna-taylor-death-cops.html:837,https://en.wikipedia.org:443/wiki/Major_Arena_Soccer_League:2056 2057 2058 2059 2060 2061,https://en.wikipedia.org:443/wiki/United_States_Reports:577 578 579 580 581 582 583 584 585 586 587 588 589 590 591 592 593 594 595 596 597 598 599 600 601 602 603 604 605 606 607 608 609 610 611 612 613 614 615 616 617 618 619 620 621 622 623 624 625 626 627 628 629 630 631,https://www.nytimes.com:443/2024/05/02/business/horse-racing-deaths-kentucky-derby.html:1129 1130,https://en.wikipedia.org:443/wiki/Architecture_of_the_United_States:4638 4639,https://www.forbes.com:443/sites/mikeozanian/2019/05/10/david-beckham-reportedly-buys-stake-in-his-company-at-150-million-valuation/:205 206,https://en.wikipedia.org:443/wiki/Olympic_Games:9630 9631 9632 9633 9634 9635 9636 9637 9638 9639 9640 9641 9642 9643 9644 9646,https://www.nytimes.com:443/2024/05/04/nyregion/trump-trial-scandals-testimony.html:1045 1046 1047,https://en.wikipedia.org:443/wiki/NBA:5815 5816 5817 5818 5820,https://en.wikipedia.org:443/wiki/Indiana:8326 8327 8328 8329 8330 8331 8332 8333 8334 8335 8336 8337 8338 8339 8340 8341 8342 8343 8344 8345 8346 8347 8348 8349,https://www.nytimes.com:443/article/wedding-feature-submission-form.html:450 451 452 453 454 455 456,https://en.wikipedia.org:443/wiki/Spanish%E2%80%93American_War:11725 11726 11727 11728 11729 11730 11731 11732 11733 11734 11735 11736 11737,https://en.wikipedia.org:443/wiki/Colonial_history_of_the_United_States:10839 10840 10841 10842 10843,https://en.wikipedia.org:443/wiki/Immigrant_health_care_in_the_United_States:4826 4827 4828 4829 4830 4831 4832 4833 4834 4835 4836 4837 4838 4839 4840 4841 4842 4843 4844 4845 4846 4847 4848 4849 4850 4851 4852 4853 4854 4855 4856 4857 4858 4859 4860 4861 4862 4863 4864 4865 4866 4867 4868 4869,https://www.nytimes.com:443/2017/11/24/opinion/vietnam-the-chemical-war.html?mtrref=www.google.ca&amp;assetType=opinion:798,https://www.nytimes.com:443/2024/04/22/us/politics/israel-gaza-hamas-war.html:1314 1315 1316 1317 1318 1319,https://en.wikipedia.org:443/wiki/United_States_Declaration_of_Independence:8781 8782 8783 8784 8785 8786 8787,https://en.wikipedia.org:443/wiki/Red_River_of_the_South:1632,https://en.wikipedia.org:443/wiki/History_of_the_United_States_(1945%E2%80%931964):6970 6971 6972 6973 6974 6975,https://www.nytimes.com:443/section/books/review?page=7:1232,https://en.wikipedia.org:443/wiki/New_England:7939 7940 7941 7942 7944 7945 7946 7947 7948,https://www.forbes.com:443/sites/greatspeculations/2019/09/22/a-strange-new-world-economic-slowdown-liquidity-issues/:661 662 663,https://en.wikipedia.org:443/wiki/Sports_in_Yemen:945,https://www.nytimes.com:443/2024/05/03/climate/nasa-satellites-data.html:751,https://stmarysmusings.sbnation.com:443/:579 580 581 582 583 584,https://www.nytimes.com:443/books/best-sellers/mass-market-monthly/:536,https://en.wikipedia.org:443/wiki/War_in_Afghanistan_(2001%E2%80%932021):15578 15579 15580 15581 15582 15583 15584 15585 15586 15587 15588 15589 15590 15591 15592 15593 15594 15595 15596 15597 15598 15599 15600 15601 15602 15603 15604 15605 15606 15607 15608 15609 15610 15611 15612 15613 15614 15615 15616 15617 15618 15619 15628 15629 15630 15631 15632 15633 15634 15635,https://en.wikipedia.org:443/wiki/National_symbols_of_the_United_States:1322 1323,https://www.nytimes.com:443/2024/05/02/us/blast-mortar-brain-injury-military.html:1005 1006,https://en.wikipedia.org:443/wiki/2023_Big_Ten_Conference_football_season:4518,https://en.wikipedia.org:443/wiki/MLB_Network:3763 3764 3765 3766 3767 3768 3769 3770 3771,https://www.telegraph.co.uk:443/news/worldnews/asia/afghanistan/8693247/Secret-peace-talks-between-US-and-Taliban-collapse-over-leaks.html:513,https://www.nytimes.com:443/section/reader-center:501 502 503 504 505 506 507,https://www.gallup.com:443/corporate/468077/media-center.aspx:508 509 510 511 512 513 514 515 516 517,https://www.nytimes.com:443/2024/05/04/opinion/alexandria-ocasio-cortez.html:1034 1035,https://www.nytimes.com:443/section/theater:407 408,https://www.nytimes.com:443/section/fashion?page=9:1866,https://www.sportsbusinessjournal.com:443/Journal/Issues/2012/04/02/Media/Fox-channel.aspx:968 969,https://www.sportsbusinessjournal.com:443/Daily/Issues/2024/04/29.aspx:749 750,https://en.wikipedia.org:443/wiki/History_of_the_United_States_(2008%E2%80%93present):9256 9257 9258 9259 9260 9261 9262 9263 9264 9265 9266 9267 9268 9269 9270 9271 9272 9273 9274 9275 9276 9277 9279 9280 9281 9282 9283 9284 9285 9286 9287,https://www.cnn.com:443/2020/09/26/politics/supreme-court-conservative/index.html:1093 1094,https://www.nytimes.com:443/spotlight/podcasts:1622 1623,https://www.sportsbusinessjournal.com:443/Journal/Issues/2024/03/04.aspx:783,https://www.nytimes.com:443/section/todayspaper:349,https://spoiler.bolavip.com:443/en/celebrities/ryan-gosling-net-worth:427 428 429,https://en.wikipedia.org:443/wiki/Municipal_council:2137,https://en.wikipedia.org:443/wiki/United_States_Public_Health_Service_Commissioned_Corps:2343 2344 2345 2346,https://en.wikipedia.org:443/wiki/Prescription_drug_prices_in_the_United_States:5378 5379 5380 5381 5382 5383 5384 5385 5386 5387 5388 5389 5390 5391 5392 5393,https://en.wikipedia.org:443/wiki/Constitution_of_the_United_States:10681 10682 10683 10684 10685 10686 10687 10688 10689 10690 10691 10692,https://en.wikipedia.org:443/wiki/List_of_U.S._states_and_territories_by_life_expectancy:1843 1844 1845 1846 1847,https://www.nytimes.com:443/2024/05/04/world/europe/sadiq-khan-london-mayor-results.html:581,https://www.usatoday.com:443/story/sports/mlb/2013/08/11/fox-sports-1-versus-espn/2641247/:750,https://www.ghanaweb.com:443/GhanaHomePage/SportsArchive/Basketball-is-the-biggest-sporting-discipline-in-Ghana-after-football-and-boxing-Yaw-Sakyi-927250:243,https://www.nytco.com:443/careers/:176 177,https://www.nytimes.com:443/spotlight/graphics?page=10:1824 1825 1826,https://cooking.nytimes.com:443/about-us:737 738 739 740 741 742,https://en.wikipedia.org:443/wiki/Literacy_in_the_United_States:4886 4887 4888 4889 4890 4891 4892 4893 4894 4895 4896 4897 4898 4899 4900 4901 4902 4903 4904 4905 4906 4907 4908 4909 4910 4911 4912 4913 4914 4915 4916 4917 4918 4919 4920 4921 4922 4923,https://www.nytimes.com:443/spotlight/visual-investigations:1279 1280 1281 1282 1283 1284 1285 1286,https://www.nytimes.com:443/spotlight/nyt-events?page=2:474,https://www.nytimes.com:443/by/liam-stack:284 285 286 287,https://www.businessinsider.com:443/a-timeline-of-trumps-efforts-to-overturn-the-2020-election-2021-10:799 800 801 802 803 804 805 806 807 808 810,https://www.nytimes.com:443/2024/04/26/us/politics/kristi-noem-dog-killing.html:486,https://www.nytimes.com:443/2024/05/02/arts/design/petrit-halilaj-kosovo-met-roof.html:871 872,https://arxiv.org:443/abs/1607.04484:362,https://www.packers.com:443/community/shareholders:512,https://en.wikipedia.org:443/wiki/Summer_Olympic_Games:4644 4645,https://www.nytimes.com:443/2022/02/11/sports/horse-racing/medina-spirit-kentucky-derby-necropsy.html?searchResultPosition=2:545 546 547,https://news.gallup.com:443/topic/retirement.aspx:567,https://www.nytimes.com:443/live/2024/05/02/us/biden-trump-campaign:2009 2010 2011 2012 2013 2014 2015 2016 2017 2018 2019,https://en.wikipedia.org:443/wiki/IndyCar_Series:5931,https://en.wikipedia.org:443/wiki/Arkansas_River:1947 1948,https://en.wikipedia.org:443/wiki/Fashion_in_the_United_States:1568 1569,https://en.wikipedia.org:443/wiki/Columbia_(personification):2244 2245 2246 2247,https://www.nytimes.com:443/live/2024/05/04/us/college-campus-protests:2418 2419 2420 2421 2422 2423 2424,https://en.wikipedia.org:443/wiki/Baseball:7847 7848 7850 7851 7852,https://www.tlc.com:443/weddings/top-trends-for-spring-wedding-2024:542,https://www.patriots.com:443/news/check-out-the-2016-patriots-color-rush-jerseys-270621:1066 1067 1068,https://en.wikipedia.org:443/wiki/Inter_Miami:6252 6253 6254 6255 6256 6258 6259 6260 6261 6262,https://en.wikipedia.org:443/wiki/Forbes:1803 1804 1805 1806 1807 1808 1810 1811 1812,https://www.nytimes.com:443/section/science:587,https://www.nytimes.com:443/section/science?page=9:1834 1835 1836,https://en.wikipedia.org:443/wiki/Sergeant_at_Arms_of_the_United_States_Senate:1624 1625 1626,https://www.tlc.com:443/shows/90-day-fiance-happily-ever-after/photo-galleries/90-day-fiance-happily-ever-after-couples-bios-season-8:703,https://en.wikipedia.org:443/wiki/Sports_in_Kentucky:3591,https://en.wikipedia.org:443/wiki/Speaker_of_the_United_States_House_of_Representatives:4184 4185 4186 4187 4188 4189 4190 4191 4192 4193 4194 4195 4196 4197 4198,https://www.nytimes.com:443/2024/04/02/world/middleeast/gaza-al-shifa-hospital.html:939 940 941 942 943 944,https://www.nytimes.com:443/2024/05/04/world/europe/uk-rishi-sunak-conservatives-elections.html:773 774,https://www.theguardian.com:443/us/soccer:756 757 758 759,https://en.wikipedia.org:443/wiki/College_athletics_in_the_United_States:4011 4012 4013,https://www.nytimes.com:443/2024/05/03/opinion/campus-protests-israel-gaza.html:1785 1786 1787 1788,https://www.tlc.com:443/:321,https://en.wikipedia.org:443/wiki/American_Sign_Language:5356 5357 5358 5359 5360 5361 5362,https://www.theguardian.com:443/us-news/2019/dec/29/synagogue-stabbings-three-hurt-in-monsey-attack-say-reports:504 505 506 507 510 511,https://news.gallup.com:443/poll/224864/football-americans-favorite-sport-watch.aspx:867 868 869,https://www.theguardian.com:443/sport/2017/aug/19/will-mcgregor-v-mayweather-save-american-boxing-or-bury-it?CMP=share_btn_link:1198,https://www.nytimes.com:443/interactive/2023/us/politics/presidential-candidates-2024.html:510,https://en.wikipedia.org:443/wiki/Soccer_in_the_United_States:7187 7188 7189 7190 7191 7192 7193 7194 7195,https://en.wikipedia.org:443/wiki/Boston:10733 10734 10735 10736 10737 10738 10739 10740 10741 10742 10743 10744 10745 10746 10747 10748 10749 10750 10751 10752,https://meta.wikimedia.org:443/wiki/Category:United_States:357,https://en.wikipedia.org:443/wiki/Sports_in_the_United_States:3924 3925 3926 3927 3928 3929 3930 3931 3932 3933 3934,https://en.wikipedia.org:443/wiki/Ice_hockey:6290,https://www.nytimes.com:443/section/business:397 398 399,https://www.nytimes.com:443/article/senate-races-2024-election.html:924 925 926 927 928 929 930 931 932 933,https://en.wikipedia.org:443/wiki/United_States_Olympic_%26_Paralympic_Committee:2975,https://en.wikipedia.org:443/wiki/Sports_in_Maryland:4227,https://www.nytimes.com:443/live/2024/01/19/world/israel-hamas-news/a-un-official-says-israeli-treatment-of-detainees-may-amount-to-torture?smid=url-share:2865 2866 2867 2868 2871 2872 2873 2874 2875 2876 2877 2878 2879 2880 2881 2882 2883 2884,https://www.nytimes.com:443/section/nyregion:395 396 397,https://en.wikipedia.org:443/wiki/Fenway_Park:7809 7810 7811 7812 7813 7814 7815 7816,https://en.wikipedia.org:443/wiki/Sports_in_India:13287 13288 13289 13290 13291,https://www.nytimes.com:443/by/mark-landler:339 340 341,https://en.wikipedia.org:443/wiki/Sports_in_Washington:3713 3714,https://en.wikipedia.org:443/wiki/National_Football_League:5977,https://en.wikipedia.org:443/wiki/Sports_in_Namibia:876,https://www.pbs.org:443/wgbh/americanexperience/features/klansville-faq/:997 998,https://en.wikipedia.org:443/wiki/Sports_in_France:2033,https://www.nytimes.com:443/2024/04/01/fashion/craft-handmade-umbrella-italy.html:719,https://www.theatlantic.com:443/magazine/archive/2023/01/homelessness-affordable-housing-crisis-democrats-causes/672224/:1184 1185 1186,https://www.nytimes.com:443/2024/05/04/nyregion/columbia-protests-arrest-agitators-israel.html:1030 1031 1032 1033 1034 1035,https://www.patriots.com:443/news/ben-coates-elected-to-patriots-hall-of-fame-140866:1361 1362,https://en.wikipedia.org:443/wiki/Drug_Enforcement_Administration:5307 5308 5309 5310 5311 5312 5313 5314 5315 5316 5317 5318 5319,https://en.wikipedia.org:443/wiki/USA_Cycling:1117 1118,https://en.wikipedia.org:443/wiki/Race_and_maternal_health_in_the_United_States:3307 3308 3309 3310 3311 3312 3313 3314 3315 3316 3317 3318 3319 3321 3322 3323,https://www.nytimes.com:443/2024/05/03/us/abortion-rights-missouri-south-dakota.html:502,https://www.bbc.co.uk:443/news/world-asia-35169478:879,https://en.wikipedia.org:443/wiki/The_Washington_Post:5592 5593 5594 5595 5596 5597 5598 5599 5601 5602 5603 5604 5605 5606 5607 5608 5609 5610 5611 5612 5613 5614 5615 5616 5617 5618 5619 5620 5621 5622 5623 5624 5625 5626 5627 5628 5629,https://en.wikipedia.org:443/wiki/Southern_United_States:9489 9490 9491 9492 9493 9494 9495 9496 9497 9498 9499,https://en.wikipedia.org:443/wiki/Portal:Current_events:2390 2391 2392 2393,https://en.wikipedia.org:443/wiki/MLS:8292 8293 8294 8295 8296 8297 8298 8299 8300 8301 8302,https://www.nytimes.com:443/live/2024/05/04/us/biden-trump-campaign:522,https://www.businessinsider.com:443/s:505 506 507,https://commons.wikimedia.org:443/wiki/Category:War_in_Afghanistan_(2001%E2%80%932021):1285,https://en.wikipedia.org:443/wiki/American_Revolution:12968 12969 12970 12971 12972,https://www.law.cornell.edu:443/supremecourt/text/74/700:3996 3997 3998 3999 4000 4001 4002 4003 4004,https://www.themarshallproject.org:443/2022/06/14/what-did-fbi-data-say-about-crime-in-2021-it-s-too-unreliable-to-tell:908 909 910 911 912 913 914 915 916 917 918 919 920 921 922 923 924 925 926 927 928 929 930 931 932 933 934 935 936 937,https://www.theguardian.com:443/us-news/2020/aug/25/qanon-conspiracy-theory-explained-trump-what-is:926,https://www.nytimes.com:443/interactive/2024/04/25/nyregion/trump-trial-hush-money-payments.html:379,https://en.wikipedia.org:443/wiki/Americans:6992 6993 6994 6995 6996 6997 6998 6999 7000 7001 7002 7003 7004 7005,https://www.nytimes.com:443/2024/04/24/podcasts/laufey-gen-zs-jazz-icon-sings-for-anxious-generation.html:1549,https://en.wikipedia.org:443/wiki/National_Reconnaissance_Office:3677 3678 3679 3680 3681 3682 3683 3684 3685 3686 3689 3690 3691 3692 3693 3694 3695 3696 