reprint reprint-0 6116 https://www.nytimes.com:443/2023/11/21/dining/restaurant-review-bangkok-supper-club.html?rref=collection%2Fcollection%2Frestaurant-guide:790,https://www.nytimes.com:443/2024/04/02/world/middleeast/gaza-al-shifa-hospital.html:946,https://www.businessinsider.com:443/real-estate:1081,https://www.nytimes.com:443/2022/02/11/sports/horse-racing/medina-spirit-kentucky-derby-necropsy.html?searchResultPosition=2:548,https://www.nytimes.com:443/2024/04/22/us/politics/israel-gaza-hamas-war.html:1320,https://www.nytimes.com:443/2024/04/10/style/rishi-sunak-adidas-sambas.html:417,https://www.nytimes.com:443/2024/04/12/fashion/weddings/elena-bauer-joshua-fagel-wedding.html:571,https://www.nytimes.com:443/2024/05/03/arts/design/stanley-stellar-frieze-photography.html:637 638,https://www.nytimes.com:443/2024/05/03/style/modern-love-we-didnt-know-it-was-the-last-time.html:589,https://www.nytimes.com:443/article/senate-races-2024-election.html:942,https://en.wikipedia.org:443/wiki/United_States_Reports:632,https://www.nytimes.com:443/2024/04/17/opinion/venezuela-oil-sanctions.html:561,https://www.nytimes.com:443/2021/07/07/style/how-the-french-manicure-made-its-comeback.html:585,https://www.businessinsider.com:443/fastest-growing-sport-in-america-2011-9:309,https://www.azcentral.com:443/story/sports/nfl/cardinals/2015/09/06/nfls-dynasties-decade/71605710/:608,https://www.nytimes.com:443/2024/05/01/us/free-speech-campus-protests.html:682,https://www.nytimes.com:443/2024/04/20/health/seniors-home-equity-mortgages.html:691,https://www.usatoday.com:443/story/sports/winter-olympics-2018/2018/02/13/medalists-2018-winter-olympics-get-precious-keepsake-and-medal/332267002/:231,https://www.businessinsider.com:443/personal-finance/mortgages:580,https://www.forbes.com:443/sites/carlieporterfield/2022/07/26/heres-why-pickleball-the-fastest-growing-sport-in-america-is-bill-gates-favorite-game/:387,https://www.nytimes.com:443/2024/05/03/opinion/nuclear-power-energy.html:633,https://www.nytimes.com:443/2024/04/14/fashion/vintage-watches-reissued.html:669,https://www.usatoday.com:443/story/news/politics/2022/08/04/krysten-sinema-inflation-reduction-act-senator-democrats-vote/10234906002/:370,https://www.usatoday.com:443/story/sports/soccer/2017/02/02/nwsl-matches-will-be-shown-on-lifetime-each-saturday/97394336/:273,https://www.usatoday.com:443/story/sports/mlb/2016/11/03/world-series-tv-television-ratings-chicago-cubs-cleveland-indians/93231896/:223,https://www.nytimes.com:443/2023/11/21/dining/restaurant-review-bangkok-supper-club.html:790,https://www.usatoday.com:443/news/nation/:258,https://www.nytimes.com:443/2019/01/31/opinion/letters/letters-to-editor-new-york-times-women.html:482,https://www.nytimes.com:443/2024/04/29/realestate/renters-astoria-queens.html:617,https://www.nytimes.com:443/2024/05/03/climate/nasa-satellites-data.html:753,https://www.nytimes.com:443/2024/05/02/us/politics/abortion-ballot-measures-2024.html:905,https://www.nytimes.com:443/2024/05/02/us/blast-mortar-brain-injury-military.html:1007,https://www.nytimes.com:443/2024/05/04/opinion/trump-second-term-illiberalism.html:851,https://en.wikipedia.org:443/wiki/Education_in_the_United_States:8524,https://www.forbes.com:443/sites/mikeozanian/2019/05/10/david-beckham-reportedly-buys-stake-in-his-company-at-150-million-valuation/:209,https://www.nytimes.com:443/2024/05/02/opinion/israel-saudi-arabia.html:873,https://www.forbes.com:443/sites/zachslaton/2012/10/15/how-the-mls-playoff-format-punishes-ambitious-teams/:795,https://www.nytimes.com:443/wirecutter/:2447,https://www.nytimes.com:443/2017/06/26/health/undocumented-immigrants-health-care.html:893,https://www.businessinsider.com:443/guides/tech:862,https://en.wikipedia.org:443/wiki/Powers_of_the_president_of_the_United_States:2775,https://www.nytimes.com:443/2024/05/04/opinion/alexandria-ocasio-cortez.html:1038,https://www.nytimes.com:443/2024/05/04/opinion/chronic-illness-vaccines-long-covid.html:484,https://www.nytimes.com:443/2005/09/18/opinion/conventional-wisdom.html:434 435,https://www.nytimes.com:443/2024/05/04/opinion/gaza-child-deaths.html:328,https://en.wikipedia.org:443/wiki/Terrorism_in_the_United_States:9849 9850,https://www.nytimes.com:443/2024/05/02/arts/design/petrit-halilaj-kosovo-met-roof.html:873,https://www.nytimes.com:443/2024/04/24/us/palestinian-family-gaza-war-death.html:1326,https://www.nytimes.com:443/2024/05/02/style/central-park-hat-luncheon.html:680,https://www.nytimes.com:443/2013/01/12/opinion/is-this-the-afghan-wars-last-chapter.html?_r=3&amp;:331,https://www.usatoday.com:443/for-subscribers/:222,https://www.nytimes.com:443/2023/04/14/us/politics/mike-pompeo-president-2024.html:471,https://www.nytimes.com:443/2024/05/04/world/europe/uk-rishi-sunak-conservatives-elections.html:775,https://www.usatoday.com:443/story/sports/mlb/2013/08/11/fox-sports-1-versus-espn/2641247/:752,https://www.nytimes.com:443/2024/03/30/opinion/abortion-drug-supreme-court.html:606,https://www.nytimes.com:443/2024/05/02/business/horse-racing-deaths-kentucky-derby.html:1131,https://en.wikipedia.org:443/wiki/United_States_Declaration_of_Independence:8804 8805 8806 8807,https://www.nytimes.com:443/2024/05/03/us/abortion-rights-missouri-south-dakota.html:503,https://www.businessinsider.com:443/a-timeline-of-trumps-efforts-to-overturn-the-2020-election-2021-10:811,https://www.nytimes.com:443/2014/11/11/technology/obama-net-neutrality-fcc.html:653,https://www.nytimes.com:443/2024/05/04/opinion/fat-activist-freedom-health.html:658,https://www.nytimes.com:443/2024/04/18/nyregion/trump-trial-jury-hush-money.html:486,https://www.forbes.com:443/2008/09/09/mls-soccer-beckham-biz-sports-cz_kb_0909mlsvalues.html:340,https://www.nytimes.com:443/2024/04/01/fashion/craft-handmade-umbrella-italy.html:720,https://www.nytimes.com:443/2024/04/27/opinion/left-right-happiness.html:525,https://www.forbes.com:443/sites/greatspeculations/2019/09/22/a-strange-new-world-economic-slowdown-liquidity-issues/:664,https://www.nytimes.com:443/2024/04/27/us/politics/trump-trial-fact-check.html:670,https://www.businessinsider.com:443/s:508 