reput reput-0 2474 https://en.wikipedia.org:443/wiki/Southern_United_States:9545,https://en.wikipedia.org:443/wiki/War_in_Afghanistan_(2001%E2%80%932021):15667 15668,https://www.nytimes.com:443/section/science?page=9:1840,https://en.wikipedia.org:443/wiki/United_States_Polo_Association:1223,https://en.wikipedia.org:443/wiki/Iroquois:12079 12080,https://en.wikipedia.org:443/wiki/United_States_Declaration_of_Independence:8829 8830 8831 8832 8833 8834 8835,https://en.wikipedia.org:443/wiki/Culture_of_the_United_States:9115,https://www.azcentral.com:443/story/sports/nfl/cardinals/2015/09/06/nfls-dynasties-decade/71605710/:609 610 611 612 613 614 615,https://en.wikipedia.org:443/wiki/Indiana:8376,https://www.nytimes.com:443/section/world:930,https://en.wikipedia.org:443/wiki/College_athletics_in_the_United_States:4016 4017,https://www.nytimes.com:443/2022/02/11/sports/horse-racing/medina-spirit-kentucky-derby-necropsy.html?searchResultPosition=2:549,https://www.law.cornell.edu:443/supremecourt/text/74/700:4049,https://en.wikipedia.org:443/wiki/United_States_dollar:6298,https://en.wikipedia.org:443/wiki/Sports_in_India:13308,https://www.dandc.eu:443/en/article/dangers-us-administration-negotiating-taliban-without-involving-afghan-government:470,https://nytlicensing.com:443/magazines/:889,https://www.nytimes.com:443/2024/05/04/world/europe/uk-rishi-sunak-conservatives-elections.html:776 777,https://en.wikipedia.org:443/wiki/Arkansas_River:1950,https://en.wikipedia.org:443/wiki/Forbes:1815,https://en.wikipedia.org:443/wiki/Cold_War:16194,https://en.wikipedia.org:443/wiki/New_England:7976 7977,https://en.wikipedia.org:443/wiki/National_League_(baseball):3017,https://en.wikipedia.org:443/wiki/American_League:1910,https://en.wikipedia.org:443/wiki/Baseball:7861 7862,https://en.wikipedia.org:443/wiki/History_of_the_United_States_(1945%E2%80%931964):6994,https://en.wikipedia.org:443/wiki/The_Washington_Post:5652 5653 5654,https://www.nytimes.com:443/section/travel:487,https://www.nytimes.com:443/section/books/review?page=7:1233,https://www.nytimes.com:443/2024/05/02/business/horse-racing-deaths-kentucky-derby.html:1132,https://www.nytimes.com:443/news-event/2024-election:411,https://www.nytimes.com:443/video/last-word:913,https://nytlicensing.com:443/:904,https://www.nytimes.com:443/2024/05/04/world/europe/russia-soldiers-women.html:880,https://en.wikipedia.org:443/wiki/Boston:10762 10763 10764 10765 10766,https://en.wikipedia.org:443/wiki/Town_meeting:2343 2344 