reserv reserv-0 14577 https://en.wikipedia.org:443/wiki/Consolidated_city-county:2814 2815 2816 2817 2818 2819,https://www.gallup.com:443/corporate/216134/media-inquiries.aspx:417,https://www.azcentral.com:443/story/sports/nfl/cardinals/2015/09/06/nfls-dynasties-decade/71605710/:616,https://www.tlc.com:443/inside-tlc/TLC-Casting:895,https://en.wikipedia.org:443/wiki/Constitution_of_the_United_States:10806 10807 10808 10809 10810 10811 10812 10813 10814 10815,https://www.espn.com:443/college-football/boxscore/_/gameId/401520155:314,https://www.nytimes.com:443/section/travel:488 489 490,https://en.wikipedia.org:443/wiki/Coterminous_municipality:370 371,https://en.wikipedia.org:443/wiki/MLS:8318 8319 8320 8321 8322 8323 8324 8325 8326 8327 8328,https://en.wikipedia.org:443/wiki/Ice_hockey:6310,https://en.wikipedia.org:443/wiki/United_States_Minor_Outlying_Islands:1418 1419 1420,https://www.nytimes.com:443/section/style:489,https://en.wikipedia.org:443/wiki/Terrorism_in_the_United_States:9859 9860 9861 9862 9863 9864,https://www.nytimes.com:443/2024/04/18/t-magazine/chalet-des-iles-paris-restaurant.html:976,https://en.wikipedia.org:443/wiki/Tribal_sovereignty_in_the_United_States:3642 3643 3644 3645 3646 3647 3648 3649 3650 3651 3652 3653 3654 3655 3656 3657 3658 3659 3660 3661 3662 3663 3664 3665 3666 3667 3668 3669 3670 3671 3672,https://www.fmfstateofmind.com:443/:642,https://www.sbnation.com:443/2014/10/5/6916597/nba-new-tv-deal-espn-turner-24-billion:583,https://www.cnn.com:443/2020/08/24/politics/muslim-ice-detainees-pork-meals/index.html:702,https://www.sportsbusinessjournal.com:443/Daily/Issues/2024/04/29.aspx:753 754,https://bolavip.com:443/en/info/terms-conditions:512 513,https://www.gallup.com:443/corporate/468077/media-center.aspx:521,https://en.wikipedia.org:443/wiki/United_States_Declaration_of_Independence:8838 8839 8840 8841,https://en.wikipedia.org:443/wiki/Americans:7024,https://en.wikipedia.org:443/wiki/Agriculture_in_the_United_States:4524 4525 4526,https://en.wikipedia.org:443/wiki/Sports_in_Kentucky:3592 3593,https://en.wikipedia.org:443/wiki/United_States_dollar:6305 6306 6307 6308 6309 6310 6311 6312 6313 6314 6315 6316 6317 6318 6319 6320 6321 6322 6323 6324 6325 6326 6327 6328 6329 6330 6331 6332 6333 6334 6335 6336 6337 6338 6339 6340 6341 6342 6343 6344 6345 6346 6347 6348 6349 6350 6351 6352 6353 6354 6355 6356 6357 6358 6359 6360 6361 6362 6363 6364 6365 6366 6367 6368 6369 6370 6371 6372 6373 6374 6375 6376 6377 6378 6379 6380 6381 6382 6383 6384 6385 6386 6387 6388 6389 6390 6391 6392 6393 6394 6395 6396 6397 6398 6399 6400 6401 6402 6403,https://www.cookingchanneltv.com:443/:244,https://en.wikipedia.org:443/wiki/History_of_the_United_States_(1945%E2%80%931964):6996,https://www.theguardian.com:443/us-news/2019/dec/29/synagogue-stabbings-three-hurt-in-monsey-attack-say-reports:514,https://en.wikipedia.org:443/wiki/Baseball:7867 7868,https://en.wikipedia.org:443/wiki/Architecture_of_the_United_States:4652 4653 4654,https://wtop.com:443/virginia/2020/01/virginia-becomes-38th-state-to-ratify-equal-rights-amendment-but-it-may-be-too-late/:586,https://www.wired.com:443/2016/08/olympic-cities-everywhere/:644,https://en.wikipedia.org:443/wiki/History_of_the_United_States_(1849%E2%80%931865):4552,https://www.cookingchanneltv.com:443/recipes/tia-mowry/spaghetti-and-turkey-meatballs-2803024:679 680,https://en.wikipedia.org:443/wiki/American_Revolution:13093 13094 13095 13096 13097,https://www.nytimes.com:443/2024/05/04/style/nonalcoholic-drinks-kids-mocktail.html:609,https://www.forbes.com:443/sites/greatspeculations/2019/09/22/a-strange-new-world-economic-slowdown-liquidity-issues/:667 668 669 670 671 672 673 674 675,https://www.foodnetwork.com:443/:699,https://en.wikipedia.org:443/wiki/New_England:7978 7979 7980 7981 7982 7983,https://www.commanders.com:443/news/commanders-agree-to-trade-de-montez-sweat-to-chicago-bears:521,https://en.wikipedia.org:443/wiki/Comparison_of_U.S._state_and_territory_governments:1587,https://en.wikipedia.org:443/wiki/Education_in_the_United_States:8558 8559 8560 8561 8562,https://www.espn.com:443/college-football/boxscore/_/gameId/401520324:349,https://en.wikipedia.org:443/wiki/College_athletics_in_the_United_States:4032,https://www.businessinsider.com:443/fastest-growing-sport-in-america-2011-9:310,https://www.sportsbusinessjournal.com:443/Journal/Issues/2024/03/04.aspx:786 787,https://en.wikipedia.org:443/wiki/Colonial_history_of_the_United_States:10871 10872 10873 10874,https://en.wikipedia.org:443/wiki/Supreme_Court_of_the_United_States:13238 13239 13240 13241 13242 13243 13244,https://spoiler.bolavip.com:443/en/celebrities/ryan-gosling-net-worth:430 431,https://en.wikipedia.org:443/wiki/Sports_in_Armenia:2065,https://www.nytimes.com:443/section/technology:385,https://en.wikipedia.org:443/wiki/Olympic_Games:9685,https://en.wikipedia.org:443/wiki/United_States_federal_civil_service:2059,https://en.wikipedia.org:443/wiki/The_Washington_Post:5656 5657 5658,https://en.wikipedia.org:443/wiki/National_Boxing_Association:2355,https://www.nytimes.com:443/live/2024/05/04/us/college-campus-protests:2427,https://www.sbncollegehockey.com:443/high-school-hockey/2015/3/7/8167923/2015-minnesota-boys-high-school-total-attendance-record-135618:275,https://www.nytimes.com:443/2023/11/21/dining/restaurant-review-bangkok-supper-club.html?rref=collection%2Fcollection%2Frestaurant-guide:791 792 793 794 795 796 797,https://www.theguardian.com:443/sport/nhl:555,https://en.wikipedia.org:443/wiki/U.S._Immigration_and_Customs_Enforcement:5143,https://news.gallup.com:443/vault/203270/gallup-vault-football-rise-spectator-sport.aspx:636,https://en.wikipedia.org:443/wiki/History_of_the_United_States_debt_ceiling:2296 2297 2298 2299,https://en.wikipedia.org:443/wiki/Sergeant_at_Arms_of_the_United_States_Senate:1635,https://en.wikipedia.org:443/wiki/Soccer_in_the_United_States:7210 7211 7212 7213 7214 7215 7216 7217 7218 7219 7220 7221 7222 7223 7224 7225,https://en.wikipedia.org:443/wiki/Articles_of_Confederation:6048 6049 6050,https://en.wikipedia.org:443/wiki/WNBA%27s_Top_15_Team:599 600,https://en.wikipedia.org:443/wiki/Spanish%E2%80%93American_War:11786 11787 11788 11789 11790 11791 11792 11793 11794,https://en.wikipedia.org:443/wiki/List_of_U.S._states_and_territories_by_life_expectancy:1852 1853 1854,https://en.wikipedia.org:443/wiki/Fenway_Park:7824,https://en.wikipedia.org:443/wiki/Boston_Red_Sox:9074,https://en.wikipedia.org:443/wiki/National_Football_League:5992 5993 5994,https://en.wikipedia.org:443/wiki/History_of_the_United_States_(2008%E2%80%93present):9334 9335 9336 9337 9338 9339 9340 9341 9342 9343,https://www.ncaa.org:443/sports/2021/5/11/division-i-finances.aspx:262,https://bolavip.com:443/en/info/privacy:623 624,https://en.wikipedia.org:443/wiki/Indiana:8383 8384 8385 8386 8387 8388 8389 8390,https://www.ncaa.org:443/sports/2021/4/21/division-ii-academics.aspx:288,https://en.wikipedia.org:443/wiki/USA_Baseball:4965,https://en.wikipedia.org:443/wiki/Sports_in_the_United_States:3946 3947 3948,https://www.theguardian.com:443/world/2001/oct/27/afghanistan.terrorism6:493,https://en.wikipedia.org:443/wiki/Gymnastics_in_the_United_States:1661,https://en.wikipedia.org:443/wiki/Sports_in_El_Salvador:2654,https://www.theguardian.com:443/sport/2017/aug/19/will-mcgregor-v-mayweather-save-american-boxing-or-bury-it?CMP=share_btn_link:1200,https://cooking.nytimes.com:443/recipes/1016295-mint-julep:1423 1424,https://en.wikipedia.org:443/wiki/Sports_in_Washington:3721,https://www.gallup.com:443/394505/indicator-life-evaluation-index.aspx:803,https://www.ncaa.org:443/sports/2021/5/3/membership-directory.aspx:231,https://www.ghanaweb.com:443/GhanaHomePage/SportsArchive/Basketball-is-the-biggest-sporting-discipline-in-Ghana-after-football-and-boxing-Yaw-Sakyi-927250:244,https://www.theguardian.com:443/type/video+tone/comment:610,https://nirsa.net:443/nirsa/:360,https://www.theguardian.com:443/sport/2004/jul/27/cricket.comment:627,https://en.wikipedia.org:443/wiki/International_rankings_of_the_United_States:1355 1356 1357,https://en.wikipedia.org:443/wiki/Template_talk:United_States_topics:1785 1786 1787,https://www.businessinsider.com:443/s:509,https://en.wikipedia.org:443/wiki/Greenhouse_gas_emissions_by_the_United_States:3390,https://bolavip.com:443/en:710 711,https://en.wikipedia.org:443/wiki/Uniform_act:690 691,https://www.businessinsider.com:443/a-timeline-of-trumps-efforts-to-overturn-the-2020-election-2021-10:818,https://en.wikipedia.org:443/wiki/American_exceptionalism:5141 5142 5143 5144,https://www.theguardian.com:443/info/privacy:179,https://en.wikipedia.org:443/wiki/Powers_of_the_president_of_the_United_States:2794 2795 2796,https://www.theguardian.com:443/uk/2010/may/04/sainsburys-sponsors-paralympic-games:341,https://www.sportsbusinessjournal.com:443/Archive/Sections/International.aspx:821 822,https://en.wikipedia.org:443/wiki/Drug_Enforcement_Administration:5338,https://news.gallup.com:443/topic/retirement.aspx:568,https://www.espn.com:443/college-football/boxscore/_/gameId/401520200:314,https://en.wikipedia.org:443/wiki/Democratic_Party_(United_States):11092 11093 11094,https://en.wikipedia.org:443/wiki/Bureau_of_Diplomatic_Security:3480,https://en.wikipedia.org:443/wiki/Fashion_in_the_United_States:1575 1576 1577,https://en.wikipedia.org:443/wiki/National_symbols_of_the_United_States:1332 1333 1334,https://www.tlc.com:443/weddings/top-trends-for-spring-wedding-2024:543,https://en.wikipedia.org:443/wiki/Inter_Miami:6269 6270 6271 6272 6273 6274,https://www.cnn.com:443/2020/09/26/politics/supreme-court-conservative/index.html:1102,https://www.nytimes.com:443/2024/04/24/podcasts/laufey-gen-zs-jazz-icon-sings-for-anxious-generation.html:1552,https://www.businessinsider.com:443/real-estate:1084,https://bleacherreport.com:443/articles/2748217-gsp-vacates-belt-champion-robert-whittaker-will-face-luke-rockhold-at-ufc-221:153,https://en.wikipedia.org:443/wiki/Jack_Nicklaus:7446 7447 7448,https://www.espn.com:443/college-football/boxscore/_/gameId/401520383:300,https://en.wikipedia.org:443/wiki/Iroquois:12091 12092 12093 12094 12095 12096 12097 12098 12099 12100 12101 12102 12103 12104 12105 12106 12107 12108 12109 12110 12111 12112 12113 12114 12115 12116,https://en.wikipedia.org:443/wiki/Outline_of_the_history_of_the_United_States:4149,https://www.sportsbusinessjournal.com:443/Articles/2023/10/23/mls-sets-attendance-record-for-season:655 656,https://en.wikipedia.org:443/wiki/Major_Arena_Soccer_League:2063 2064,https://www.tlc.com:443/shows/90-day-fiance-happily-ever-after/photo-galleries/90-day-fiance-happily-ever-after-couples-bios-season-8:704,https://en.wikipedia.org:443/wiki/Great_Recession_in_the_United_States:4338 4339 4340 4341 4342 4343 4344 4345 4346 4347 4348 4349 4350 4351 4352 4353 4354 4355 4356 4357 4358 4359 4360 4361 4362 4363 4364,https://www.businessinsider.com:443/personal-finance/mortgages:581,https://dcp.psc.gov:443/ccbulletin/articles/Reserve_Update.aspx:231 232 233 234 235 236 237 238 239 240 241 242 243 244 245 246,https://en.wikipedia.org:443/wiki/National_Reconnaissance_Office:3702 3703 3704,https://en.wikipedia.org:443/wiki/Independent_city_(United_States):923 924 925 926,https://news.gallup.com:443/poll/224864/football-americans-favorite-sport-watch.aspx:870,https://en.wikipedia.org:443/wiki/Special_district_(United_States):1326 1327,https://en.wikipedia.org:443/wiki/Boston:10769 10770 10771,https://www.espn.com:443/college-football/boxscore/_/gameId/401520417:346,https://www.nytimes.com:443/2024/05/04/world/europe/russia-soldiers-women.html:884,https://www.tlc.com:443/:322,https://www.nytimes.com:443/video/last-word:916,https://www.theguardian.com:443/us/soccer:760,https://en.wikipedia.org:443/wiki/Southern_United_States:9553 9554 9555 9556 9557,https://www.nytimes.com:443/2005/09/18/opinion/conventional-wisdom.html:439 440,https://en.wikipedia.org:443/wiki/Hawaiian_home_land:717 718 719 720 721 722 723 724,https://www.espn.com:443/college-football/boxscore/_/gameId/401520265:318,https://en.wikipedia.org:443/wiki/West_Coast_of_the_United_States:2462 2463 2464,https://www.ncaa.org:443/sb_output.aspx?form=28:189,https://www.nytimes.com:443/2023/11/21/dining/restaurant-review-bangkok-supper-club.html:791 792 793 794 795 796 797,https://en.wikipedia.org:443/wiki/United_States_Public_Health_Service_Commissioned_Corps:2356 2357 2358 2359 2360 2361 2362 2363 2364 2365 2366 2367 2368 2369 2370 2371 2372 2373 2374 2375 2376 2377 2378 2379,https://www.usopc.org:443/paralympic-sport-development:242,https://www.nytimes.com:443/section/business:402 403,https://en.wikipedia.org:443/wiki/Timeline_of_United_States_inventions_(after_1991):2287 2288 2289,https://en.wikipedia.org:443/wiki/National_monument_(United_States):1407 1408,https://en.wikipedia.org:443/wiki/Columbia_(personification):2256 2257 2258,https://stmarysmusings.sbnation.com:443/:593,https://www.nytimes.com:443/2009/01/05/opinion/05krugman.html:440 441,https://www.businessinsider.com:443/guides/tech:865,https://www.theguardian.com:443/sport/2018/jan/23/aly-raisman-olympic-committee-larry-nassar-abuse-case:439,https://www.theguardian.com:443/us-news/2020/aug/25/qanon-conspiracy-theory-explained-trump-what-is:931,https://en.wikipedia.org:443/wiki/Cold_War:16204 16205 16206 16207,https://en.wikipedia.org:443/wiki/Literacy_in_the_United_States:4946 4947 4948,https://en.wikipedia.org:443/wiki/Perpetual_Union:2771 2772 2773 2774 2775 2776 2777,https://en.wikipedia.org:443/wiki/National_League_(baseball):3019,https://archive.curbed.com:443/2020/1/13/21026108/public-housing-faircloth-amendment-election-2020:935,https://www.nytimes.com:443/reviews/dining:367 368 369 370 371 372 373,https://en.wikipedia.org:443/wiki/Maternal_mortality_in_the_United_States:4096,https://en.wikipedia.org:443/wiki/Culture_of_the_United_States:9123 9124 9125 9126 9127 9128,https://en.wikipedia.org:443/wiki/Boswell:511,https://www.law.cornell.edu:443/supremecourt/text/74/700:4072,https://en.wikipedia.org:443/wiki/Sports_in_India:13314 13315 13316 13317 13318 13319,https://www.sportsbusinessjournal.com:443/Journal/Issues/2012/04/02/Media/Fox-channel.aspx:973 974,https://www.sportsbusinessjournal.com:443/Subscribe/Subscription-Landing.aspx:738 739,https://www.tlc.com:443/parenting/are-men-or-women-more-likely-to-want-kids-study:581,https://en.wikipedia.org:443/wiki/U.S._state:4246 4247 4248 4249 4250 4251 4252 4253 4254 4255 4256 4257 4258,https://en.wikipedia.org:443/wiki/Federal_law_enforcement_in_the_United_States:2454 2455 2456 2457 2458 2459 