respons respons-0 14282 https://en.wikipedia.org:443/wiki/Spanish%E2%80%93American_War:11832 11833 11834 11835 11836 11837 11838 11839 11840 11841 11842,https://www.azcentral.com:443/story/sports/nfl/cardinals/2015/09/06/nfls-dynasties-decade/71605710/:617,https://en.wikipedia.org:443/wiki/American_exceptionalism:5155 5156 5157 5158 5159,https://www.nytimes.com:443/series/opinion-audio:281 282,https://en.wikipedia.org:443/wiki/Immigrant_health_care_in_the_United_States:4905 4906 4907 4908 4909,https://www.nytimes.com:443/section/jobs:278,https://archive.curbed.com:443/2020/1/13/21026108/public-housing-faircloth-amendment-election-2020:947,https://en.wikipedia.org:443/wiki/Environmental_issues_in_the_United_States:3241 3242 3243 3244 3245 3246 3247,https://www.nytimes.com:443/2024/05/03/opinion/campus-protests-israel-gaza.html:1808 1809 1810,https://en.wikipedia.org:443/wiki/United_States_Public_Health_Service_Commissioned_Corps:2393 2394 2395 2396 2397 2398 2399 2400 2401 2402 2403 2404 2405 2406,https://en.wikipedia.org:443/wiki/Tribal_sovereignty_in_the_United_States:3686 3687 3688 3689,https://en.wikipedia.org:443/wiki/Antisemitism_in_the_United_States:3681 3682,https://en.wikipedia.org:443/wiki/Arkansas_River:1957,https://www.fmfstateofmind.com:443/:644,https://en.wikipedia.org:443/wiki/Inter_Miami:6275,https://www.gallup.com:443/394505/indicator-life-evaluation-index.aspx:812,https://en.wikipedia.org:443/wiki/Sergeant_at_Arms_of_the_United_States_Senate:1645 1646,https://history.army.mil:443/books/wwii/persian/index.htm:838 839 840 841,https://www.bbc.co.uk:443/news/world-asia-35169478:884,https://en.wikipedia.org:443/wiki/Drug_Enforcement_Administration:5353 5354 5355 5356 5357 5358 5359 5360 5361 5362 5363 5364 5365 5366,https://www.sbnation.com:443/2014/10/5/6916597/nba-new-tv-deal-espn-turner-24-billion:585,https://www.nytimes.com:443/2021/07/07/style/how-the-french-manicure-made-its-comeback.html:587 588,https://en.wikipedia.org:443/wiki/MLB_Network:3776,https://www.usatoday.com:443/story/sports/winter-olympics-2018/2018/02/13/medalists-2018-winter-olympics-get-precious-keepsake-and-medal/332267002/:233,https://www.nytimes.com:443/2024/05/03/opinion/nuclear-power-energy.html:636,https://www.nytimes.com:443/2024/05/04/style/nonalcoholic-drinks-kids-mocktail.html:610,https://www.nytimes.com:443/2024/05/01/us/free-speech-campus-protests.html:687,https://www.wired.com:443/2016/08/olympic-cities-everywhere/:646,https://en.wikipedia.org:443/wiki/The_Washington_Post:5669,https://en.wikipedia.org:443/wiki/Baseball:7873 7874 7875 7876 7877 7878 7879 7880,https://en.wikipedia.org:443/wiki/Education_in_the_United_States:8582 8583 8584,https://en.wikipedia.org:443/wiki/Speaker_of_the_United_States_House_of_Representatives:4371 4372 4373 4374,https://en.wikipedia.org:443/wiki/Indiana:8414 8415 8416,https://en.wikipedia.org:443/wiki/War_in_Afghanistan_(2001%E2%80%932021):15727 15728 15729 15730 15731 15732 15733 15734 15735 15736 15737 15738 15739 15740 15741 15742 15743 15744 15745 15746 15747 15748 15749,https://www.usatoday.com:443/story/sports/mlb/2016/11/03/world-series-tv-television-ratings-chicago-cubs-cleveland-indians/93231896/:225,https://www.nytimes.com:443/2024/05/01/magazine/catholic-cousin-annulment-ethics.html:573,https://en.wikipedia.org:443/wiki/Greenhouse_gas_emissions_by_the_United_States:3417 3418 3419 3420 3421 3422 3423,https://en.wikipedia.org:443/wiki/Soccer_in_the_United_States:7231,https://nytlicensing.com:443/timesdigest/:661,https://www.nytimes.com:443/2023/11/21/dining/restaurant-review-bangkok-supper-club.html?rref=collection%2Fcollection%2Frestaurant-guide:798 799 800,https://dcp.psc.gov:443/ccbulletin/articles/Reserve_Update.aspx:249 250,https://en.wikipedia.org:443/wiki/Americans:7036 7037 7038,https://www.pbs.org:443/wgbh/americanexperience/features/klansville-faq/:1011,https://en.wikipedia.org:443/wiki/United_States_Olympic_%26_Paralympic_Committee:2982 2983 2984 2985 2986 2987 2988,https://www.sbncollegehockey.com:443/high-school-hockey/2015/3/7/8167923/2015-minnesota-boys-high-school-total-attendance-record-135618:277,https://en.wikipedia.org:443/wiki/Prescription_drug_prices_in_the_United_States:5424 5425 5426 5427,https://www.nytimes.com:443/2024/05/03/climate/nasa-satellites-data.html:759,https://www.nytimes.com:443/2024/05/02/opinion/israel-saudi-arabia.html:876,https://wtop.com:443/virginia/2020/01/virginia-becomes-38th-state-to-ratify-equal-rights-amendment-but-it-may-be-too-late/:596,https://en.wikipedia.org:443/wiki/Ice_hockey:6315 6316 6317,https://en.wikipedia.org:443/wiki/U.S._state:4283 4284 4285 4286,https://en.wikipedia.org:443/wiki/Boston_Red_Sox:9078,https://en.wikipedia.org:443/wiki/Boston:10798,https://www.nytimes.com:443/international/:613,https://en.wikipedia.org:443/wiki/Iroquois:12145 12146 12147 12148 12149 12150 12151 12152 12153 12154 12155,https://en.wikipedia.org:443/wiki/College_athletics_in_the_United_States:4038 4039 4040,https://en.wikipedia.org:443/wiki/History_of_the_United_States_debt_ceiling:2306 2307,https://en.wikipedia.org:443/wiki/Terrorism_in_the_United_States:9877 9878 9879 9880 9881 9882 9883 9884 9885 9886 9887 9888 9889 9890 9891 9892 9893 9894,https://en.wikipedia.org:443/wiki/National_monument_(United_States):1413,https://en.wikipedia.org:443/wiki/New_England_Patriots:10781,https://en.wikipedia.org:443/wiki/Vietnam_War:14660 14661 14662 14663 14664 14665 14666 14667 14668 14669 14670 14671,https://www.nytimes.com:443/section/arts/dance:338,https://www.nytimes.com:443/spotlight/podcasts:1628 1629,https://en.wikipedia.org:443/wiki/American_Revolution:13173 13174 13175 13176 13177 13178 13179 13180,https://en.wikipedia.org:443/wiki/Maternal_mortality_in_the_United_States:4102 4103 4104,https://en.wikipedia.org:443/wiki/National_Reconnaissance_Office:3713 3714 3715 3716 3717,https://en.wikipedia.org:443/wiki/Hawaiian_home_land:725 726 727 728,https://www.nytimes.com:443/live/2024/05/04/us/college-campus-protests:2435,https://www.nytimes.com:443/2024/05/03/world/europe/campus-protests-rorschach-test.html:981,https://en.wikipedia.org:443/wiki/Architecture_of_the_United_States:4675,https://www.nytimes.com:443/2013/01/12/opinion/is-this-the-afghan-wars-last-chapter.html?_r=3&amp;:333,https://en.wikipedia.org:443/wiki/Olympic_Games:9698 9699 9700 9701 9702 9703 9704 9705 9706,https://en.wikipedia.org:443/wiki/Sports_in_Belize:890,https://www.nytimes.com:443/ca/:618,https://en.wikipedia.org:443/wiki/ISSN_(identifier):1274,https://www.usatoday.com:443/story/sports/mlb/2013/08/11/fox-sports-1-versus-espn/2641247/:755,https://en.wikipedia.org:443/wiki/Gymnastics_in_the_United_States:1662,https://en.wikipedia.org:443/wiki/Sports_in_India:13329 13330 13331 13332 13333 13334 13335 13336,https://en.wikipedia.org:443/wiki/Great_Recession_in_the_United_States:4369 4370 4371 4372 4373 4374 4375 4376 4377 4378 4379 4380,https://www.nytimes.com:443/2023/11/21/dining/restaurant-review-bangkok-supper-club.html:798 799 800,https://www.nytimes.com:443/2024/04/27/opinion/left-right-happiness.html:528,https://en.wikipedia.org:443/wiki/USA_Baseball:4976 4977 4978,https://bolavip.com:443/en/info/privacy:627 628 629 630,https://www.bbc.co.uk:443/news/world-us-canada-55358342:438,https://www.nytimes.com:443/2024/04/17/opinion/venezuela-oil-sanctions.html:564,https://www.nytimes.com:443/live/2024/05/02/us/biden-trump-campaign:2052 2053 2054,https://www.nytimes.com:443/2017/11/24/opinion/vietnam-the-chemical-war.html?mtrref=www.google.ca&amp;assetType=opinion:801 802 803 804,https://en.wikipedia.org:443/wiki/U.S._Immigration_and_Customs_Enforcement:5154 5155 5156 5157 5158 5159 5160 5161 5162 5163 5164 5165 5166 5167 5168 5169 5170 5171 5172 5173 5174 5175 5176 5177 5178 5179,https://en.wikipedia.org:443/wiki/Colonial_history_of_the_United_States:10898 10899 10900 10901 10902 10903,https://en.wikipedia.org:443/wiki/History_of_the_United_States_(1849%E2%80%931865):4562 4563 4564,https://en.wikipedia.org:443/wiki/History_of_the_United_States_(2008%E2%80%93present):9372 9373 9374 9375 9376 9377 9378 9379 9380 9381,https://en.wikipedia.org:443/wiki/Cold_War:16247 16248 16249 16250 16251 16252 16253 16254 16255 16256 16257 16258 16259 16260 16261 16262 16263 16264 16265 16266,https://en.wikipedia.org:443/wiki/Perpetual_Union:2791,https://www.nytimes.com:443/2024/05/02/us/blast-mortar-brain-injury-military.html:1009 1010,https://www.usatoday.com:443/story/news/politics/2022/08/04/krysten-sinema-inflation-reduction-act-senator-democrats-vote/10234906002/:376,https://news.gallup.com:443/poll/224864/football-americans-favorite-sport-watch.aspx:875,https://www.nytimes.com:443/section/health?page=7:1488,https://en.wikipedia.org:443/wiki/National_League_(baseball):3023,https://www.nytimes.com:443/section/opinion/letters:172 173 174 175 176,https://www.nytimes.com:443/interactive/2018/08/25/opinion/sunday/student-debt-loan-default-college.html:412,https://www.nytimes.com:443/2024/05/04/opinion/fat-activist-freedom-health.html:665 666,https://www.forbes.com:443/sites/greatspeculations/2019/09/22/a-strange-new-world-economic-slowdown-liquidity-issues/:678,https://www.usatoday.com:443/for-subscribers/:225,https://www.nytimes.com:443/2021/08/16/world/asia/afghanistan-taliban-video.html:635,https://www.nytimes.com:443/section/science?page=9:1850 1851,https://www.nytimes.com:443/2024/05/02/business/horse-racing-deaths-kentucky-derby.html:1135 1136,https://en.wikipedia.org:443/wiki/Sports_in_Kentucky:3596,https://www.nytimes.com:443/2024/04/14/fashion/vintage-watches-reissued.html:672,https://en.wikipedia.org:443/wiki/Volleyball:3969 3970 3971 3972 3973 3974,https://en.wikipedia.org:443/wiki/Wikipedia:File_upload_wizard:1573,https://en.wikipedia.org:443/wiki/Sports_in_Cuba:1017,https://www.usatoday.com:443/news/nation/:260,https://www.nytimes.com:443/spotlight/graphics:462,https://www.nytimes.com:443/video/last-word:920,https://www.nytimes.com:443/live/2024/01/19/world/israel-hamas-news/a-un-official-says-israeli-treatment-of-detainees-may-amount-to-torture?smid=url-share:2898,https://en.wikipedia.org:443/wiki/Democratic_Party_(United_States):11116 11117 11118 11119 11120 11121 11122 11123 11124,https://www.nytimes.com:443/2024/05/04/opinion/trump-second-term-illiberalism.html:862,https://en.wikipedia.org:443/wiki/Outline_of_the_history_of_the_United_States:4151,https://en.wikipedia.org:443/wiki/Summer_Olympic_Games:4661,https://en.wikipedia.org:443/wiki/Southern_United_States:9588 9589,https://en.wikipedia.org:443/wiki/NBA:5838 5839 5840,https://www.nytimes.com:443/section/magazine?page=8:1196 1197,https://bolavip.com:443/en/info/terms-conditions:515 516 517 518,https://www.nytimes.com:443/news-event/israel-hamas-gaza:568,https://www.nytimes.com:443/2024/05/03/nyregion/trump-trial-hope-hicks-takeaways.html:612,https://en.wikipedia.org:443/wiki/Associate_Justice_of_the_Supreme_Court_of_the_United_States:2209,https://en.wikipedia.org:443/wiki/Constitution_of_the_United_States:10855 10856 10857 10858 10859 10860,https://www.usatoday.com:443/story/sports/soccer/2017/02/02/nwsl-matches-will-be-shown-on-lifetime-each-saturday/97394336/:275,https://www.nytimes.com:443/2023/11/29/business/dealbook/kamala-harris-biden-voters.html:543,https://www.saturdaydownsouth.com:443/sports/ranking-top-25-rivalries-college-sports-2023/:1332,https://www.nytimes.com:443/2024/05/04/business/energy-environment/tesla-electric-vehicles-supercharger.html:834 835 836 837,https://en.wikipedia.org:443/wiki/Association_of_Summer_Olympic_International_Federations:1058,https://en.wikipedia.org:443/wiki/Town_meeting:2379 2380 2381,https://en.wikipedia.org:443/wiki/Literacy_in_the_United_States:4965 4966 4967 4968 4969 4970,https://en.wikipedia.org:443/wiki/Culture_of_the_United_States:9146 9147 9148 9149,https://www.law.cornell.edu:443/supremecourt/text/74/700:4104 4105 4106,https://www.nytimes.com:443/video:360,https://www.nytimes.com:443/section/opinion?page=5:768 769 770 771 772,https://en.wikipedia.org:443/wiki/Supreme_Court_of_the_United_States:13283 13284 13285,https://en.wikipedia.org:443/wiki/Professional_boxer:1689,https://www.nytimes.com:443/live/2024/05/04/world/israel-gaza-war-hamas:1453 1454 1455,https://www.nytimes.com:443/spotlight/podcasts?page=6:2495 2496 2497 2498,https://stmarysmusings.sbnation.com:443/:595,https://www.nytimes.com:443/issue/magazine/2024/04/12/the-41424-issue:186,https://en.wikipedia.org:443/wiki/Beach_volleyball:3827 3828 3829 3830 3831 3832,https://en.wikipedia.org:443/wiki/Agriculture_in_the_United_States:4536 4537 4538 4539 4540,https://www.usopc.org:443/paralympic-sport-development:246,https://en.wikipedia.org:443/wiki/Federal_law_enforcement_in_the_United_States:2460 2461 2462 2463 2464 2465 2466 2467 2468 2469 2470 2471 2472,https://en.wikipedia.org:443/wiki/Municipal_council:2162 2163 2164 2165 2166 2167,https://www.nytimes.com:443/section/education:545,https://www.nytimes.com:443/spotlight/nyt-events?page=2:477 478,https://en.wikipedia.org:443/wiki/Powers_of_the_president_of_the_United_States:2808 2809 2810 2811 2812 2813,https://www.nytimes.com:443/video/us/100000007348445/breonna-taylor-death-cops.html:840,https://en.wikipedia.org:443/wiki/American_Sign_Language:5388 5389,https://en.wikipedia.org:443/wiki/Time_in_the_United_States:1478,https://en.wikipedia.org:443/wiki/United_States_Declaration_of_Independence:8919 8920 8921 8922 8923 8924,https://www.nytimes.com:443/:740,https://en.wikipedia.org:443/wiki/United_States_Attorney:1707 1708 1709 1710,https://www.nytimes.com:443/interactive/2024/05/03/us/ucla-protests-encampment-violence.html:853 854 855 856 857,https://en.wikipedia.org:443/wiki/Snowboarding:3067,https://en.wikipedia.org:443/wiki/New_England:8006,https://www.nytimes.com:443/section/books/review?page=7:1236 1237,https://www.nytimes.com:443/spotlight/graphics?page=10:1858 1859,https://www.nytimes.com:443/2024/05/04/nyregion/columbia-protests-arrest-agitators-israel.html:1040,https://www.nytimes.com:443/spotlight/nyt-events:352,https://www.nytimes.com:443/live/2024/05/03/world/israel-gaza-war-hamas:1437 1438 1439,https://en.wikipedia.org:443/wiki/Portal:Current_events:2417 2418,https://en.wikipedia.org:443/wiki/Bureau_of_Diplomatic_Security:3498 3499 3500 3501 3502 3503 3504 3505 3506 