retir retir-0 7246 https://www.azcentral.com:443/story/sports/nfl/cardinals/2015/09/06/nfls-dynasties-decade/71605710/:618,https://www.cnn.com:443/2020/09/26/politics/supreme-court-conservative/index.html:1107 1108,https://en.wikipedia.org:443/wiki/Constitution_of_the_United_States:10874,https://www.nytimes.com:443/2024/04/20/health/seniors-home-equity-mortgages.html:697 698 699 700 701 702 703 704 705 706,https://en.wikipedia.org:443/wiki/History_of_the_United_States_(2008%E2%80%93present):9399 9400 9401 9402 9403,https://news.gallup.com:443/poll/224864/football-americans-favorite-sport-watch.aspx:879,https://en.wikipedia.org:443/wiki/National_League_(baseball):3027,https://en.wikipedia.org:443/wiki/Cold_War:16305 16306,https://www.nytimes.com:443/section/realestate:574,https://en.wikipedia.org:443/wiki/Inter_Miami:6282 6283 6284,http://www.redsoxdiehard.com:80/players/unifnums.html:3970 3971 3972 3973 3974 3975 3976 3977 3978 3979 3980 3981 3982 3983 3984 3985 3986 3987 3988 3989 3990 3991,https://www.nytimes.com:443/live/2024/05/04/us/college-campus-protests:2441,https://en.wikipedia.org:443/wiki/Sports_in_Samoa:1307,https://en.wikipedia.org:443/wiki/Carlos_Bocanegra:2222 2223 2224,https://www.nytimes.com:443/2024/05/04/us/politics/biden-insulin-voters-drugs.html:810,https://en.wikipedia.org:443/wiki/United_States_Olympic_%26_Paralympic_Committee:2992 2993,https://en.wikipedia.org:443/wiki/Beach_volleyball:3835,https://en.wikipedia.org:443/wiki/Jack_Nicklaus:7462 7463 7464,https://www.nytimes.com:443/video/last-word:926,https://en.wikipedia.org:443/wiki/United_States_Reports:635,https://www.sbnation.com:443/2014/10/5/6916597/nba-new-tv-deal-espn-turner-24-billion:587,https://en.wikipedia.org:443/wiki/Sports_in_Washington:3726 3727,https://en.wikipedia.org:443/wiki/Sports_in_Cuba:1019,https://en.wikipedia.org:443/wiki/Federal_law_enforcement_in_the_United_States:2473 2474,https://en.wikipedia.org:443/wiki/National_Football_League:6011 6012 6013,https://en.wikipedia.org:443/wiki/American_League:1911,https://en.wikipedia.org:443/wiki/Town_meeting:2384,https://en.wikipedia.org:443/wiki/USA_Baseball:4986,https://en.wikipedia.org:443/wiki/Bureau_of_Diplomatic_Security:3511,https://en.wikipedia.org:443/wiki/Sports_in_Kentucky:3598 3599,https://en.wikipedia.org:443/wiki/Associate_Justice_of_the_Supreme_Court_of_the_United_States:2210 2211 2212 2213 2214 2215 2216 2217 2218 2219 2220 2221 2222 2223 2224 2225 2226 2227 2228 2229 2230 2231 2232 2233 2234 2235 2236 2237 2238 2239 2240 2241 2242 2243 2244 2245 2246 2247 2248 2249 2250 2251 2252 2253 2254 2255 2256 2257 2258 2259 2260 2261 2262 2263 2264 2265 2266 2267,https://www.nytimes.com:443/section/reader-center:512 513 514,https://en.wikipedia.org:443/wiki/Comparison_of_U.S._state_and_territory_governments:1596 1597 1598 1599 1600 1601,https://www.businessinsider.com:443/personal-finance/mortgages:582 583 584,https://www.businessinsider.com:443/real-estate:1093,https://www.nytimes.com:443/article/senate-races-2024-election.html:975 976 977 978 979,https://en.wikipedia.org:443/wiki/Sports_in_Finland:2568,https://en.wikipedia.org:443/wiki/Sports_in_Armenia:2070,https://en.wikipedia.org:443/wiki/Sports_in_American_Samoa:1061,https://www.nytimes.com:443/2024/05/03/books/cj-sansom-dead.html:622,https://www.nytimes.com:443/spotlight/podcasts?page=6:2501,https://en.wikipedia.org:443/wiki/United_States_Public_Health_Service_Commissioned_Corps:2407 2408 2409,https://en.wikipedia.org:443/wiki/Supreme_Court_of_the_United_States:13313 13314 13315 13316 13317 13318 13319 13320 13321 13322 13323 13324 13325 13326 13327 13328 13329 13330 13331 13332 13333 13334 13335 13336 13337 13338 13339 13340 13341 13342 13343 13344,https://en.wikipedia.org:443/wiki/Baseball:7893,https://www.nytimes.com:443/section/magazine?page=8:1201,https://en.wikipedia.org:443/wiki/Major_professional_sports_teams_of_the_United_States_and_Canada:1569 1570,https://en.wikipedia.org:443/wiki/Olympic_Games:9716 9717,https://en.wikipedia.org:443/wiki/Sports_in_Estonia:1633,https://en.wikipedia.org:443/wiki/Speaker_of_the_United_States_House_of_Representatives:4386,https://news.gallup.com:443/topic/retirement.aspx:572 573 574 579 580 581 582 583 584 585 586 587 588 589 590 591 592 593 594 595 596,https://en.wikipedia.org:443/wiki/Boston_Red_Sox:9086 9087 9088 9089 9090 9091 9092 9093 9094 9095 9096 9097 9098 9099 9100 9101 9102 9103 9104 9105 9106 9107 9108 9109 9110 9111 9112 9113 9114 9115 9116 9117 9118 9119 9120 9121 9122 9123 9124 9125 9126,https://en.wikipedia.org:443/wiki/Professional_boxer:1696,https://en.wikipedia.org:443/wiki/The_Washington_Post:5676 5677,https://en.wikipedia.org:443/wiki/WNBA%27s_Top_15_Team:602,https://en.wikipedia.org:443/wiki/United_States_Minor_Outlying_Islands:1425 1426,https://www.nytimes.com:443/wirecutter/:2451,https://en.wikipedia.org:443/wiki/List_of_current_United_States_district_judges:8791,https://www.themarshallproject.org:443/2022/06/14/what-did-fbi-data-say-about-crime-in-2021-it-s-too-unreliable-to-tell:940 941 942,https://en.wikipedia.org:443/wiki/Sports_in_South_Korea:1769,https://en.wikipedia.org:443/wiki/Sports_in_Poland:2270 2271 2272,https://en.wikipedia.org:443/wiki/College_athletics_in_the_United_States:4047,https://www.independent.co.uk:443/tv/travel-smart:897,https://en.wikipedia.org:443/wiki/New_England_Patriots:10793 10794 10795 10796 10797 10798 10799 10800 10801 10802 10803 10804 10805 10806 10808 10809 10810 10811,https://www.nytimes.com:443/2024/05/02/us/blast-mortar-brain-injury-military.html:1016,https://en.wikipedia.org:443/wiki/Immigrant_health_care_in_the_United_States:4923,https://www.theguardian.com:443/world/2001/oct/27/afghanistan.terrorism6:495,https://www.nytimes.com:443/section/business:405,https://www.theguardian.com:443/sport/2017/aug/19/will-mcgregor-v-mayweather-save-american-boxing-or-bury-it?CMP=share_btn_link:1202,https://en.wikipedia.org:443/wiki/Spanish%E2%80%93American_War:11868 11869 11870 11871 11872,https://www.patriots.com:443/news/ben-coates-elected-to-patriots-hall-of-fame-140866:1365,https://www.nytimes.com:443/2024/05/03/arts/design/stanley-stellar-frieze-photography.html:641,https://en.wikipedia.org:443/wiki/NBA:5851 5852 5853,https://www.nytimes.com:443/2024/04/22/us/politics/israel-gaza-hamas-war.html:1334 1335,https://en.wikipedia.org:443/wiki/Sports_in_Belize:891,https://en.wikipedia.org:443/wiki/Articles_of_Confederation:6085,https://www.nytimes.com:443/live/2024/01/19/world/israel-hamas-news/a-un-official-says-israeli-treatment-of-detainees-may-amount-to-torture?smid=url-share:2908,https://www.nytimes.com:443/2024/05/04/world/europe/sadiq-khan-london-mayor-results.html:589,https://bolavip.com:443/en:712 713 714,https://en.wikipedia.org:443/wiki/United_States_dollar:6420,https://en.wikipedia.org:443/wiki/Indiana:8426,https://news.gallup.com:443/vault/203270/gallup-vault-football-rise-spectator-sport.aspx:640,https://www.nytimes.com:443/section/fashion?page=9:1879,https://en.wikipedia.org:443/wiki/Sports_in_Ghana:2121 2122,https://en.wikipedia.org:443/wiki/National_Reconnaissance_Office:3718,https://en.wikipedia.org:443/wiki/Fenway_Park:7833 7834 7835 7836 7837 7838 7839 7840 7841 7842 7843 7844 7845 7846 7847 7848 7849 7850 7851 7852 