review review-0 22756 https://en.wikipedia.org:443/wiki/Olympic_Games:9931 9932 9933 9934 9935 9936 9937 9938 9939 9940 9941,https://www.nytimes.com:443/books/best-sellers/mass-market-monthly/:541 542,https://en.wikipedia.org:443/wiki/History_of_the_United_States_debt_ceiling:2348,https://www.nytimes.com:443/2024/04/18/t-magazine/chalet-des-iles-paris-restaurant.html:999 1000,https://www.azcentral.com:443/story/sports/nfl/cardinals/2015/09/06/nfls-dynasties-decade/71605710/:619,https://www.cookingchanneltv.com:443/recipes/tia-mowry/spaghetti-and-turkey-meatballs-2803024:682 683,https://www.nytimes.com:443/section/nyregion:401,https://www.nytimes.com:443/section/food:420,https://en.wikipedia.org:443/wiki/Spanish%E2%80%93American_War:11990 11991 11992 11993 11994 11995 11996 11997 11998 11999 12000 12001 12002 12003 12004 12005 12006 12007 12008 12009 12010 12011 12012 12013 12014 12015 12016 12017 12018 12019 12020 12021,https://en.wikipedia.org:443/wiki/Timeline_of_United_States_inventions_(after_1991):2305,https://en.wikipedia.org:443/wiki/Ice_hockey:6402 6403 6404,https://www.nytimes.com:443/2017/11/24/opinion/vietnam-the-chemical-war.html?mtrref=www.google.ca&amp;assetType=opinion:808 809,https://en.wikipedia.org:443/wiki/Municipal_charter:388,https://www.nytimes.com:443/2024/04/17/opinion/venezuela-oil-sanctions.html:574 575,https://www.nytimes.com:443/section/arts/television:326,https://www.nytimes.com:443/2024/05/03/world/europe/campus-protests-rorschach-test.html:988 989 990,https://www.businessinsider.com:443/guides/tech:866 867 868 869 870 871 872 873 874 875 876 877 878 879 880,https://en.wikipedia.org:443/wiki/Professional_Disc_Golf_Association:1105 1106 1107,https://www.nytimes.com:443/es/:1076 1077,https://en.wikipedia.org:443/wiki/Education_in_the_United_States:8741 8742 8743 8744 8745 8746 8747 8748,https://www.nytimes.com:443/2024/05/01/magazine/catholic-cousin-annulment-ethics.html:578 579,https://www.patriots.com:443/news/check-out-the-2016-patriots-color-rush-jerseys-270621:1076 1077,https://www.usatoday.com:443/story/sports/soccer/2017/02/02/nwsl-matches-will-be-shown-on-lifetime-each-saturday/97394336/:276 277,https://www.nytimes.com:443/2024/05/02/us/politics/abortion-ballot-measures-2024.html:934 935,https://bolavip.com:443/en/info/privacy:631 632,https://www.nytimes.com:443/2024/05/03/theater/the-miser-review-brooklyn.html:410 411 412 413 414 415,https://en.wikipedia.org:443/wiki/Prescription_drug_prices_in_the_United_States:5504 5505 5506 5507 5508 5509 5510 5511 5512 5513 5514 5515 5516 5517 5518 5519 5520 5521 5522 5523 5524 5525 5526 5527 5528,https://en.wikipedia.org:443/wiki/United_States_Attorney:1717 1718,https://www.nytimes.com:443/:744 745,https://www.nytimes.com:443/2024/05/04/world/europe/sadiq-khan-london-mayor-results.html:592 593,https://www.usatoday.com:443/story/sports/mlb/2016/11/03/world-series-tv-television-ratings-chicago-cubs-cleveland-indians/93231896/:226 227,https://www.nytimes.com:443/section/arts/design:346 347,https://en.wikipedia.org:443/wiki/Indiana:8608,https://www.usatoday.com:443/story/sports/winter-olympics-2018/2018/02/13/medalists-2018-winter-olympics-get-precious-keepsake-and-medal/332267002/:234 235,https://www.nytimes.com:443/2023/11/21/dining/restaurant-review-bangkok-supper-club.html?rref=collection%2Fcollection%2Frestaurant-guide:828 829 830 831 832 833 834 835 836,https://www.nytimes.com:443/interactive/2021/07/07/opinion/minimum-corporate-tax.html:535 536,https://www.nytimes.com:443/2024/05/04/world/middleeast/cindy-mccain-gaza-famine.html:521 522,https://en.wikipedia.org:443/wiki/Volleyball:4032 4033,https://en.wikipedia.org:443/wiki/U.S._state:4363,https://www.nytimes.com:443/2024/05/03/style/modern-love-we-didnt-know-it-was-the-last-time.html:594 595,https://en.wikipedia.org:443/wiki/United_States_Declaration_of_Independence:8991 8992 8993 8994 8995 8996 8997,https://www.patriots.com:443/team/players-roster/:729 730 731,https://en.wikipedia.org:443/wiki/Associate_Justice_of_the_Supreme_Court_of_the_United_States:2282,https://www.patriots.com:443/cheerleaders/pat-patriot:651 652,https://www.nytimes.com:443/2024/05/02/opinion/israel-saudi-arabia.html:883 884,https://www.nytimes.com:443/live/2024/01/19/world/israel-hamas-news/a-un-official-says-israeli-treatment-of-detainees-may-amount-to-torture?smid=url-share:2919 2920,https://www.nytimes.com:443/2024/04/22/us/politics/israel-gaza-hamas-war.html:1342 1343,https://nytlicensing.com:443/content/harvard-health-publishing/:1416 1417 1418,https://www.nytimes.com:443/2021/07/07/style/how-the-french-manicure-made-its-comeback.html:591 592,https://en.wikipedia.org:443/wiki/Constitution_of_the_United_States:10961 10962 10963 10964 10965 10966 10967 10968 10969 10970 10971 10972 10973 10974 10975 10976 10977 10978 10979 10980 10981 10982 10983 10984 10985 10986 10987 10988 10989 10990 10991 10992 10993 10994 10995 10996 10997 10998 10999 11000 11001 11002 11003 11004 11005 11006,https://www.nytimes.com:443/2024/04/30/learning/graphs.html:260 261,https://www.usatoday.com:443/news/nation/:262 263,https://en.wikipedia.org:443/wiki/Iroquois:12271,https://www.businessinsider.com:443/fastest-growing-sport-in-america-2011-9:314 315,https://www.tlc.com:443/:328 329,https://www.nytimes.com:443/2024/04/10/style/rishi-sunak-adidas-sambas.html:420 421,https://en.wikipedia.org:443/wiki/American_Revolution:13296 13297 13298 13299 13300 13301 13302 13303 13304 13305,https://www.nytimes.com:443/2024/04/18/nyregion/trump-trial-jury-hush-money.html:491 492,https://www.nytimes.com:443/2024/05/03/opinion/nuclear-power-energy.html:643 644,https://www.nytimes.com:443/2023/04/14/us/politics/mike-pompeo-president-2024.html:484 485,https://www.nytimes.com:443/live/2024/05/04/us/biden-trump-campaign:535 536,https://www.nytimes.com:443/section/arts/television?page=3:600 601,https://www.nytimes.com:443/2024/05/04/us/politics/trump-biden-campaign-young-voters.html:716 717,https://www.nytimes.com:443/article/wedding-feature-submission-form.html:466 467 468,https://nirsa.net:443/nirsa/:364,https://www.nytimes.com:443/spotlight/podcasts:1637 1638,https://www.businessinsider.com:443/s:514 515,https://www.nytimes.com:443/2023/09/07/climate/climate-forward-event.html:450 451,https://en.wikipedia.org:443/wiki/Maternal_mortality_in_the_United_States:4171 4172 4173 4174 4175 4176 4177 4178 4179 4180 4181 4182 4183 4184 4185 4186 4187 4188 4189 4190 4191 4192 4193 4194,https://en.wikipedia.org:443/wiki/Southern_United_States:9699 9700 9701 9702,https://www.nytimes.com:443/2022/11/03/insider/what-to-expect-at-this-years-crucial-climate-summit.html:361 362,https://www.nytimes.com:443/wirecutter/:2453 2454,https://www.nytimes.com:443/live/2024/05/02/us/biden-trump-campaign:2065 2066,https://en.wikipedia.org:443/wiki/U.S._Immigration_and_Customs_Enforcement:5293 5294 5295,https://www.nytimes.com:443/books/best-sellers/:1339 1340 1341 1342 1343 1344 1345 1346 1347 1348 1349,https://en.wikipedia.org:443/wiki/Town_meeting:2397 2398,https://www.nytimes.com:443/news-event/israel-hamas-gaza:574,https://news.gallup.com:443/poll/224864/football-americans-favorite-sport-watch.aspx:880,https://www.nytimes.com:443/article/senate-races-2024-election.html:981 982,https://www.businessinsider.com:443/personal-finance/mortgages:585 586 587 588 589 590 591 592 593 594 595 596 597 598 599 600 601 602 603 604 605 606 607 608 609 610 611 612 613 614 615 616 617 618,https://www.nytimes.com:443/2014/11/11/technology/obama-net-neutrality-fcc.html:662 663,https://www.nytimes.com:443/live/2024/05/04/world/israel-gaza-war-hamas:1468 1469 1470,https://www.tlc.com:443/inside-tlc/TLC-Casting:904 905,https://www.nytimes.com:443/section/science?page=9:1870 1871,https://en.wikipedia.org:443/wiki/Immigrant_health_care_in_the_United_States:4959 4960 4961 4962 4963 4964 4965 4966 4967 4968 4969 4970 4971 4972 4973 4974,https://www.nytimes.com:443/2024/05/04/business/energy-environment/tesla-electric-vehicles-supercharger.html:841 842,https://www.usatoday.com:443/story/sports/mlb/2013/08/11/fox-sports-1-versus-espn/2641247/:757 758,https://www.nytimes.com:443/spotlight/podcasts?page=6:2509 2510 2511,https://en.wikipedia.org:443/wiki/Speaker_of_the_United_States_House_of_Representatives:4462 4463 4464,https://www.nytimes.com:443/2024/04/24/podcasts/laufey-gen-zs-jazz-icon-sings-for-anxious-generation.html:1569 1570 1571 1572,https://www.nytimes.com:443/2024/05/04/world/europe/russia-soldiers-women.html:894 895,https://www.nytimes.com:443/2022/02/11/sports/horse-racing/medina-spirit-kentucky-derby-necropsy.html?searchResultPosition=2:554 555,https://www.nytimes.com:443/2024/05/04/nyregion/columbia-protests-arrest-agitators-israel.html:1046 1047 1048 1049,https://en.wikipedia.org:443/wiki/National_monument_(United_States):1434,https://www.nytimes.com:443/article/trump-hush-money-trial-transcripts.html:290 291,https://en.wikipedia.org:443/wiki/Bureau_of_Diplomatic_Security:3550 3551,http://www.tvguidelines.org:80/ratings.html:144,https://en.wikipedia.org:443/wiki/American_League:1919,https://en.wikipedia.org:443/wiki/Special_district_(United_States):1334 1335 1336,https://www.nytimes.com:443/2024/05/04/opinion/gaza-child-deaths.html:331 332,https://en.wikipedia.org:443/wiki/Supreme_Court_of_the_United_States:13639 13640 13641 13642 13643 13644 13645 13646 13647 13648 13649 13650 13651 13652 13653 13654 13655 13656 13657 13658 13659 13660 13661 13662 13663 13664 13665 13666 13667 13668 13669 13670 13671 13672 13673 13674 13675 13676 13677 13678 13679 13680 13681 13682 13683 13684 13685,https://en.wikipedia.org:443/wiki/Vietnam_War:14863 14864 14865 14866 14867 14868 14869 14870 14871 14872 14873,https://www.nytimes.com:443/section/books/review:414 415 416 417 418 419 420 421 422 423 424,https://www.nytimes.com:443/2009/01/05/opinion/05krugman.html:445 446,https://en.wikipedia.org:443/wiki/History_of_the_United_States_(2008%E2%80%93present):9618 9619 9620,https://www.nytimes.com:443/2024/05/04/opinion/fat-activist-freedom-health.html:669 670,https://www.nytimes.com:443/section/magazine?page=8:1204,https://www.thetimes.co.uk:443/article/susan-hall-tory-mayoral-candidate-liked-tweet-praising-enoch-powell-zqsr6lvfk:274 275,https://en.wikipedia.org:443/wiki/Americans:7199,https://en.wikipedia.org:443/wiki/The_Washington_Post:5845 5846 5847 5848 5849,https://www.nytimes.com:443/2024/05/04/style/nonalcoholic-drinks-kids-mocktail.html:620 621,https://www.nytimes.com:443/interactive/2023/us/politics/presidential-candidates-2024.html:524 525,https://www.nytimes.com:443/2024/05/03/opinion/campus-protests-israel-gaza.html:1819 1820 1821 1822 1823,https://www.nytimes.com:443/interactive/2024/nyregion/trump-manhattan-criminal-trial-witnesses.html:629 630,https://www.nytimes.com:443/2005/09/18/opinion/conventional-wisdom.html:445 446,https://www.nytimes.com:443/section/corrections?page=5:796 797,https://www.nytimes.com:443/2024/05/02/arts/design/petrit-halilaj-kosovo-met-roof.html:879 880,https://www.foodnetwork.com:443/:706 707 708 709 710 711,https://www.nytimes.com:443/section/health?page=7:1500 1501,https://www.nytimes.com:443/2024/04/29/learning/what-should-be-done-about-the-gender-pay-gap-in-sports.html:512 513,https://www.nytimes.com:443/section/nyregion?page=4:908 909,https://www.tlc.com:443/parenting/are-men-or-women-more-likely-to-want-kids-study:586,https://en.wikipedia.org:443/wiki/Fenway_Park:7994,https://www.nytimes.com:443/2024/05/04/opinion/trump-second-term-illiberalism.html:869 870,https://www.nytimes.com:443/2024/04/14/fashion/vintage-watches-reissued.html:678 679,https://www.nytimes.com:443/2024/05/02/style/central-park-hat-luncheon.html:684 685,https://en.wikipedia.org:443/wiki/Democratic_Party_(United_States):11373 11374 11375 11376 11377 11378 11379 11380 11381 11382,https://en.wikipedia.org:443/wiki/American_exceptionalism:5214 5215 5216 5217 5218 5219 5220 5221 5222 5223 5224 5225 5226 5227 5228 5229,https://en.wikipedia.org:443/wiki/Powers_of_the_president_of_the_United_States:2859 2860 2861 2862 2863 2864 2865 2866 2867,https://www.usatoday.com:443/for-subscribers/:228 229,https://en.wikipedia.org:443/wiki/Rugby_union_at_the_Summer_Olympics:1615,https://www.nationalreview.com:443/corner/us-olympic-wins-not-due-government-involvement/:10,https://www.nytimes.com:443/section/arts/dance:340 341 342 343,https://en.wikipedia.org:443/wiki/Tribal_sovereignty_in_the_United_States:3726 3727 3728 3729 3730,https://www.nytimes.com:443/section/magazine:334,https://www.nytimes.com:443/reviews/dining:384 385 386 387 388 389 390 391 392 393 394 395,https://www.nytimes.com:443/2024/04/01/fashion/craft-handmade-umbrella-italy.html:727 728,https://www.businessinsider.com:443/real-estate:1094 1095,https://www.nytimes.com:443/live/2024/05/04/us/college-campus-protests:2449 2450,https://www.nytimes.com:443/2024/05/03/books/cj-sansom-dead.html:624 625 626 627 628 629,https://cooking.nytimes.com:443/about-us:747 748 749,https://www.nytimes.com:443/interactive/2024/05/03/us/ucla-protests-encampment-violence.html:861 862,https://www.nytimes.com:443/section/fashion?page=9:1891 1892,https://en.wikipedia.org:443/wiki/History_of_the_United_States_(1945%E2%80%931964):7064,https://www.independent.co.uk:443/extras/indybest/house-garden:803 804 805 806 807 808 809 810 811 812,https://dcp.psc.gov:443/ccbulletin/articles/Reserve_Update.aspx:252 253,https://www.nytimes.com:443/2024/05/02/arts/music/tiktok-universal-music-deal.html:473 474,https://www.nytimes.com:443/by/pamela-paul:325 326 327,https://en.wikipedia.org:443/wiki/Perpetual_Union:2803 2804 2805,https://www.theatlantic.com:443/magazine/archive/2023/01/homelessness-affordable-housing-crisis-democrats-causes/672224/:1206,https://www.nytimes.com:443/2024/05/02/business/horse-racing-deaths-kentucky-derby.html:1144 1145 1146 1147,https://en.wikipedia.org:443/wiki/Literacy_in_the_United_States:5021 5022 5023 5024 5025 5026,https://www.nytimes.com:443/2024/04/12/fashion/weddings/elena-bauer-joshua-fagel-wedding.html:579 580,https://en.wikipedia.org:443/wiki/Fashion_in_the_United_States:1588,https://www.nytimes.com:443/2024/03/30/opinion/abortion-drug-supreme-court.html:627 628,https://en.wikipedia.org:443/wiki/Sports_in_the_United_States:4025 4026,https://www.nytimes.com:443/2024/05/01/us/free-speech-campus-protests.html:693 694,https://en.wikipedia.org:443/wiki/Uniform_act:698,https://en.wikipedia.org:443/wiki/Federal_tribunals_in_the_United_States:1464 1465 1466 1467 1468 1469 1470,https://www.patriots.com:443/news/ben-coates-elected-to-patriots-hall-of-fame-140866:1369 1370,https://www.nytimes.com:443/2024/04/26/us/politics/kristi-noem-dog-killing.html:494 495,https://www.nytimes.com:443/2019/01/31/opinion/letters/letters-to-editor-new-york-times-women.html:486 487,https://www.cnn.com:443/2020/09/26/politics/supreme-court-conservative/index.html:1114 1115,https://www.nytimes.com:443/2024/05/02/us/blast-mortar-brain-injury-military.html:1017 1018,https://www.nytimes.com:443/2013/01/12/opinion/is-this-the-afghan-wars-last-chapter.html?_r=3&amp;:336 337,https://www.nytimes.com:443/interactive/2024/02/22/crosswords/puzzle-personality.html:255 256 257,https://en.wikipedia.org:443/wiki/Forbes:1866,https://www.nytimes.com:443/2023/11/29/business/dealbook/kamala-harris-biden-voters.html:546 547,https://www.ghanaweb.com:443/GhanaHomePage/SportsArchive/Basketball-is-the-biggest-sporting-discipline-in-Ghana-after-football-and-boxing-Yaw-Sakyi-927250:247,https://en.wikipedia.org:443/wiki/Culture_of_the_United_States:9326 9327 9328 9329 9330 9331 9332 9333,https://www.nytimes.com:443/section/fashion:886 887,https://nytlicensing.com:443/magazines/:893 894,https://en.wikipedia.org:443/wiki/Mayoralty_in_the_United_States:659,https://en.wikipedia.org:443/wiki/Consolidated_city-county:2892,https://en.wikipedia.org:443/wiki/New_England:8165 8166 8167 8168 8169,https://www.saturdaydownsouth.com:443/sports/ranking-top-25-rivalries-college-sports-2023/:1335 1336,https://www.nytimes.com:443/interactive/2024/05/03/opinion/global-billionaires-tax.html:715 716,https://www.nytimes.com:443/2024/04/27/us/politics/trump-trial-fact-check.html:681 682,https://www.nytimes.com:443/2024/05/04/us/politics/biden-insulin-voters-drugs.html:812 813,https://en.wikipedia.org:443/wiki/List_of_current_United_States_district_judges:8796,https://www.nytimes.com:443/2024/05/02/learning/word-of-the-day-rapport.html:275 276,https://www.nytimes.com:443/2024/05/03/opinion/us-africa-niger-chad.html:572 573,https://www.nytimes.com:443/live/2024/05/03/world/israel-gaza-war-hamas:1450 1451 1452 1453,https://en.wikipedia.org:443/wiki/Fox_Sports_1:4013,https://en.wikipedia.org:443/wiki/Race_and_maternal_health_in_the_United_States:3351 3352 3353 3354 3355 3356 3357 3358 3359,https://www.nytimes.com:443/2024/04/29/realestate/renters-astoria-queens.html:628 629,https://www.nytimes.com:443/2019/06/19/us/newsom-native-american-apology.html:671 672,https://en.wikipedia.org:443/wiki/Antisemitism_in_the_United_States:3737 3738,https://www.nytimes.com:443/2024/04/20/health/seniors-home-equity-mortgages.html:715 716,https://www.wired.com:443/2016/08/olympic-cities-everywhere/:650 651,https://www.nytimes.com:443/subscription:123 124,https://www.nytimes.com:443/section/reader-center:518,https://en.wikipedia.org:443/wiki/Snowboarding:3126 3127 3128 3129,https://www.nytimes.com:443/2024/05/03/arts/design/stanley-stellar-frieze-photography.html:646 647,https://commons.wikimedia.org:443/wiki/Category:Sports_in_the_United_States:746,https://www.nytimes.com:443/2021/08/16/world/asia/afghanistan-taliban-video.html:642 643 644,https://en.wikipedia.org:443/wiki/Colonial_history_of_the_United_States:10936 10937 10938 10939 10940 10941 10942 10943 10944 10945 10946,https://en.wikipedia.org:443/wiki/History_of_the_United_States_(1849%E2%80%931865):4586 4587,https://www.nytimes.com:443/2024/04/27/opinion/left-right-happiness.html:532 533,https://www.nytimes.com:443/interactive/2024/02/01/magazine/israel-founding-palestinian-conflict.html:1384 1385,https://www.nytimes.com:443/2024/05/03/climate/nasa-satellites-data.html:764 765,https://www.nytimes.com:443/2024/04/02/world/middleeast/gaza-al-shifa-hospital.html:963 964,https://www.businessinsider.com:443/a-timeline-of-trumps-efforts-to-overturn-the-2020-election-2021-10:828 829,https://cooking.nytimes.com:443/recipes/1019333-millionaires-shortbread:1450,https://www.nytimes.com:443/interactive/2024/04/25/nyregion/trump-trial-hush-money-payments.html:383 384,https://www.nytimes.com:443/spotlight/pop-culture:162,https://www.nytimes.com:443/2024/05/03/arts/television/jimmy-kimmel-donald-trump-trial.html:333 334,https://www.nytimes.com:443/video/last-word:929,https://www.nytimes.com:443/2024/05/04/opinion/alexandria-ocasio-cortez.html:1056 1057,https://www.usatoday.com:443/story/news/politics/2022/08/04/krysten-sinema-inflation-reduction-act-senator-democrats-vote/10234906002/:380 381 382 383,https://www.nytimes.com:443/interactive/2024/03/28/travel/things-to-do-mumbai.html:1158 1159,https://en.wikipedia.org:443/wiki/United_States_Olympic_%26_Paralympic_Committee:3062 3063,https://en.wikipedia.org:443/wiki/Articles_of_Confederation:6102 6103,https://www.nytimes.com:443/2017/06/26/health/undocumented-immigrants-health-care.html:907 908,https://www.almanac.com:443/fact/how-much-is-two-bits-and-where:197,https://www.nytimes.com:443/section/arts/music:362 363 364 365,https://cooking.nytimes.com:443/recipes/1023559-ina-gartens-bourbon-chocolate-pecan-pie:1464,https://www.nytimes.com:443/2024/04/24/us/palestinian-family-gaza-war-death.html:1334 1335,https://www.nytimes.com:443/2024/05/04/opinion/chronic-illness-vaccines-long-covid.html:490 491,https://www.nytimes.com:443/2024/05/03/nyregion/trump-trial-hope-hicks-takeaways.html:617 618,https://www.forbes.com:443/sites/greatspeculations/2019/09/22/a-strange-new-world-economic-slowdown-liquidity-issues/:681,https://en.wikipedia.org:443/wiki/College_athletics_in_the_United_States:4110 4111 4112 4113 4114 4115 4116 4117,https://www.nytimes.com:443/2024/05/04/world/europe/uk-rishi-sunak-conservatives-elections.html:785 786,https://en.wikipedia.org:443/wiki/National_Reconnaissance_Office:3779 3780,https://www.nytimes.com:443/2024/05/04/us/kentucky-derby-race-photos.html:347 348,https://www.tlc.com:443/weddings/top-trends-for-spring-wedding-2024:547 548,https://www.cnn.com:443/2020/08/24/politics/muslim-ice-detainees-pork-meals/index.html:703 704 705,https://www.tlc.com:443/shows/90-day-fiance-happily-ever-after/photo-galleries/90-day-fiance-happily-ever-after-couples-bios-season-8:718,https://en.wikipedia.org:443/wiki/Drug_Enforcement_Administration:5459 5460 5461 5462 5463 5464 5465,https://www.law.cornell.edu:443/supremecourt/text/74/700:4129,https://en.wikipedia.org:443/wiki/Terrorism_in_the_United_States:10135,https://www.nytimes.com:443/section/theater:411 412 413 414 415 416 417 418,https://en.wikipedia.org:443/wiki/United_States_federal_civil_service:2091 2092,https://www.nytimes.com:443/2023/11/21/dining/restaurant-review-bangkok-supper-club.html:828 829 830 831 832 833 834 835 836,https://en.wikipedia.org:443/wiki/United_States_dollar:6501 6502 6503 6504,https://en.wikipedia.org:443/wiki/Environmental_issues_in_the_United_States:3305 3306 3307,https://en.wikipedia.org:443/wiki/MLS:8658 8659 8660,https://www.nytimes.com:443/spotlight/visual-investigations:1300,https://www.nytimes.com:443/2024/05/04/nyregion/trump-trial-scandals-testimony.html:1056 1057,https://en.wikipedia.org:443/wiki/College_basketball:4994 4995 4996 4997,https://en.wikipedia.org:443/wiki/NBA:5997 5998 5999 6000,https://en.wikipedia.org:443/wiki/War_in_Afghanistan_(2001%E2%80%932021):16199 16200 16201 16202,https://en.wikipedia.org:443/wiki/Great_Recession_in_the_United_States:4499 4500,https://nytlicensing.com:443/timesdigest/:663 664,https://en.wikipedia.org:443/wiki/National_Football_League:6164,https://www.nytimes.com:443/2024/05/03/us/abortion-rights-missouri-south-dakota.html:523 524,https://nytlicensing.com:443/:910 911 912,https://nytlicensing.com:443/license-our-content/:643 644 645,https://www.nytimes.com:443/section/books/review?page=7:1240 1241 1242 1243 1244 1245 1246 1247 1248 1249 1250 1251 1252 1253 1254,https://en.wikipedia.org:443/wiki/Public_utilities_commission:1128 1129 1130,https://en.wikipedia.org:443/wiki/Agriculture_in_the_United_States:4591 4592 4593 4594,https://www.nytimes.com:443/trending/:405 406,https://en.wikipedia.org:443/wiki/Template_talk:Americas_topic:559,https://en.wikipedia.org:443/wiki/Sports_in_Cuba:1026,https://en.wikipedia.org:443/wiki/Cold_War:16502 16503 16504 16505 16506 16507 16508 16509 16510,https://en.wikipedia.org:443/wiki/Municipal_council:2183 2184 