ricardo ricardo-0 651 https://www.nytimes.com:443/spotlight/nytimesineducation:945,https://en.wikipedia.org:443/wiki/American_Revolution:13703 13704,https://www.nytimes.com:443/section/magazine:335,https://www.azcentral.com:443/story/sports/nfl/cardinals/2015/09/06/nfls-dynasties-decade/71605710/:620,https://en.wikipedia.org:443/wiki/United_States_men%27s_national_soccer_team:6856,https://en.wikipedia.org:443/wiki/List_of_current_United_States_district_judges:8808 8809,https://en.wikipedia.org:443/wiki/2023_Big_Ten_Conference_football_season:4573 4574,https://en.wikipedia.org:443/wiki/Sports_in_Venezuela:1815,https://www.nytimes.com:443/section/magazine?page=8:1206 