ringo ringo-0 159 https://en.wikipedia.org:443/wiki/Sports_in_Poland:2290,https://www.azcentral.com:443/story/sports/nfl/cardinals/2015/09/06/nfls-dynasties-decade/71605710/:624 