robinson robinson-0 3279 https://www.patriots.com:443/team/players-roster/:739,https://en.wikipedia.org:443/wiki/NBA:6039 6040,https://en.wikipedia.org:443/wiki/Southern_United_States:9882,https://en.wikipedia.org:443/wiki/American_Revolution:13877,https://en.wikipedia.org:443/wiki/Olympic_Games:10030,https://en.wikipedia.org:443/wiki/The_Washington_Post:5907,https://en.wikipedia.org:443/wiki/Speaker_of_the_United_States_House_of_Representatives:4486,https://www.nytimes.com:443/section/fashion:893,https://en.wikipedia.org:443/wiki/Boston_Red_Sox:9426 9427 9428 9429 9430 9431 9432 9433 9434,https://en.wikipedia.org:443/wiki/National_symbols_of_the_United_States:1362,https://www.espn.com:443/college-football/boxscore/_/gameId/401520417:357 358,https://en.wikipedia.org:443/wiki/2023_Big_Ten_Conference_football_season:4596 4597 4598 4599 4600 4601 4602 4603,https://en.wikipedia.org:443/wiki/National_Football_League:6220,https://en.wikipedia.org:443/wiki/Cold_War:16735 16736,https://en.wikipedia.org:443/wiki/New_England_Patriots:11190 11191,https://en.wikipedia.org:443/wiki/History_of_the_United_States_(1945%E2%80%931964):7200 7201 7202 7203,https://en.wikipedia.org:443/wiki/New_England:8313,https://en.wikipedia.org:443/wiki/Vietnam_War:15028,https://www.theguardian.com:443/us/soccer:772,https://en.wikipedia.org:443/wiki/Professional_Disc_Golf_Association:1109,https://en.wikipedia.org:443/wiki/Sports_in_the_United_States:4060,https://en.wikipedia.org:443/wiki/Americans:7264,https://en.wikipedia.org:443/wiki/Sports_in_India:13685 13686,https://en.wikipedia.org:443/wiki/Drug_Enforcement_Administration:5505,https://www.nytimes.com:443/spotlight/graphics:467,https://en.wikipedia.org:443/wiki/Baseball:8114 8115 8116 8117 8118 8119 8120 8121,https://en.wikipedia.org:443/wiki/United_States_men%27s_national_soccer_team:6898 6899 6900 6901 6902 6903 6904,https://www.espn.com:443/college-football/boxscore/_/gameId/401520200:323,https://en.wikipedia.org:443/wiki/Maternal_mortality_in_the_United_States:4237,https://en.wikipedia.org:443/wiki/List_of_current_United_States_district_judges:8911 8912 8913,https://en.wikipedia.org:443/wiki/USA_Baseball:5075 5076,https://en.wikipedia.org:443/wiki/Town_meeting:2409 2410 2411,https://en.wikipedia.org:443/wiki/Housing_in_the_United_States:1361,https://www.azcentral.com:443/story/sports/nfl/cardinals/2015/09/06/nfls-dynasties-decade/71605710/:625,https://www.nytimes.com:443/spotlight/graphics?page=10:1875,http://www.redsoxdiehard.com:80/players/unifnums.html:4090 4091 4092 4093 4094 4095 4096 4097 4098 4099 4100 4101,https://en.wikipedia.org:443/wiki/MLB_Network:3852 3853,https://en.wikipedia.org:443/wiki/National_League_(baseball):3060,https://en.wikipedia.org:443/wiki/List_of_mountains_of_the_United_States:9152 9153 9154 9155,https://en.wikipedia.org:443/wiki/Democratic_Party_(United_States):11515 11516 11517,https://www.theguardian.com:443/sport/2017/aug/19/will-mcgregor-v-mayweather-save-american-boxing-or-bury-it?CMP=share_btn_link:1218,https://en.wikipedia.org:443/wiki/Jack_Nicklaus:7570,https://en.wikipedia.org:443/wiki/Inter_Miami:6520,https://en.wikipedia.org:443/wiki/Fenway_Park:8049 8050 8051,https://en.wikipedia.org:443/wiki/American_League:1930 1931 1932,https://www.nytimes.com:443/section/fashion?page=9:1913 