ronni ronni-0 345 https://www.azcentral.com:443/story/sports/nfl/cardinals/2015/09/06/nfls-dynasties-decade/71605710/:626,https://en.wikipedia.org:443/wiki/List_of_current_United_States_district_judges:8960 8961 8962,https://commons.wikimedia.org:443/wiki/Category:Bodybuilding_in_the_United_States:153,https://en.wikipedia.org:443/wiki/New_England_Patriots:11234 