rooki rooki-0 2178 https://en.wikipedia.org:443/wiki/Baseball:8148 8149 8150,https://en.wikipedia.org:443/wiki/WNBA%27s_Top_15_Team:604 605 606,https://en.wikipedia.org:443/wiki/Fenway_Park:8083 8084 8085,https://en.wikipedia.org:443/wiki/Supreme_Court_of_the_United_States:13917,https://en.wikipedia.org:443/wiki/Sports_in_Maryland:4300,https://en.wikipedia.org:443/wiki/IndyCar_Series:6180 6181 6182 6183,https://www.patriots.com:443/news/check-out-the-2016-patriots-color-rush-jerseys-270621:1092,https://www.nytimes.com:443/section/learning:432,https://en.wikipedia.org:443/wiki/National_Football_League:6244 6245 6246 6247 6248 6249 6250,https://en.wikipedia.org:443/wiki/NBA:6062 6063 6064 6065 6066 6067 6068 6069 6070 6071 6072 6073 6074 6075 6076 6077 6078 6079 6080,https://www.patriots.com:443/team/players-roster/:740,https://en.wikipedia.org:443/wiki/American_League:1934 1935 1936,https://www.independent.co.uk:443/sport/us-sport/nba/draft-2020-what-time-start-uk-b1725070.html:649,https://en.wikipedia.org:443/wiki/Sports_in_Venezuela:1839 1840,https://en.wikipedia.org:443/wiki/Boston_Red_Sox:9480 9481 9482 9483 9484 9485 9486 9487 9488 9489 9490 9491 9492 9493,https://www.azcentral.com:443/story/sports/nfl/cardinals/2015/09/06/nfls-dynasties-decade/71605710/:627,https://www.patriots.com:443/news/ben-coates-elected-to-patriots-hall-of-fame-140866:1380,https://www.nytimes.com:443/2024/04/29/learning/what-should-be-done-about-the-gender-pay-gap-in-sports.html:514 515 516,https://www.nytimes.com:443/section/sports:222,https://www.nfl.com:443/teams/indianapolis-colts/:578 579,https://en.wikipedia.org:443/wiki/Jack_Nicklaus:7602 7603,https://en.wikipedia.org:443/wiki/National_League_(baseball):3069 3070 3071,https://en.wikipedia.org:443/wiki/Louise_Suggs:1022,https://www.theguardian.com:443/sport/nhl:559 560 561 562 563,https://en.wikipedia.org:443/wiki/Carlos_Bocanegra:2289 2290 2291,https://www.commanders.com:443/news/commanders-agree-to-trade-de-montez-sweat-to-chicago-bears:526,https://en.wikipedia.org:443/wiki/New_England_Patriots:11235 11236 11237 11238 11239 11240,https://www.saturdaydownsouth.com:443/sports/ranking-top-25-rivalries-college-sports-2023/:1391 