rout rout-0 2619 https://en.wikipedia.org:443/wiki/Architecture_of_the_United_States:4866,https://en.wikipedia.org:443/wiki/History_of_the_United_States_(2008%E2%80%93present):9763,https://en.wikipedia.org:443/wiki/United_States_Olympic_%26_Paralympic_Committee:3102,https://en.wikipedia.org:443/wiki/Arkansas_River:2199 2200 2201 2202,https://en.wikipedia.org:443/wiki/Cable_television:2839,https://en.wikipedia.org:443/wiki/War_in_Afghanistan_(2001%E2%80%932021):16334 16335 16336 16337 16338,https://www.saturdaydownsouth.com:443/sports/ranking-top-25-rivalries-college-sports-2023/:1396 1397 1398,https://history.army.mil:443/books/wwii/persian/index.htm:847 848 849 850,https://en.wikipedia.org:443/wiki/New_England:8353 8354,https://www.nytimes.com:443/2024/05/03/books/cj-sansom-dead.html:635,https://en.wikipedia.org:443/wiki/Cycling_in_the_United_States:930 931 932 933,https://www.azcentral.com:443/story/sports/nfl/cardinals/2015/09/06/nfls-dynasties-decade/71605710/:628 629,https://en.wikipedia.org:443/wiki/Southern_United_States:9933,https://en.wikipedia.org:443/wiki/Cold_War:16831 16832 16833 16834,https://en.wikipedia.org:443/wiki/Fenway_Park:8120,https://en.wikipedia.org:443/wiki/Indiana:8760 8761 8762 8763 8764,https://cooking.nytimes.com:443/recipes/1016295-mint-julep:1444,https://www.fmfstateofmind.com:443/:692 693,https://en.wikipedia.org:443/wiki/Vietnam_War:15113 15114 15115 15116 15117,https://www.nytimes.com:443/interactive/2024/03/28/travel/things-to-do-mumbai.html:1178,https://www.independent.co.uk:443/tv/travel-smart:909,https://en.wikipedia.org:443/wiki/MLS:8762,https://en.wikipedia.org:443/wiki/Terrorism_in_the_United_States:10267,https://en.wikipedia.org:443/wiki/USA_Baseball:5110 5111 5112 5113 5114,https://en.wikipedia.org:443/wiki/Boston_Red_Sox:9526,https://en.wikipedia.org:443/wiki/Spanish%E2%80%93American_War:12346,https://en.wikipedia.org:443/wiki/West_Coast_of_the_United_States:2546 2547 2548 2549 2550 2551 2552 2553 2554,https://www.nytimes.com:443/2021/08/16/world/asia/afghanistan-taliban-video.html:647,https://en.wikipedia.org:443/wiki/History_of_the_United_States_(1849%E2%80%931865):4674,https://en.wikipedia.org:443/wiki/Culture_of_the_United_States:9459,https://en.wikipedia.org:443/wiki/Sports_in_India:13759 13760,https://en.wikipedia.org:443/wiki/Inter_Miami:6564,https://en.wikipedia.org:443/wiki/New_England_Patriots:11302,https://en.wikipedia.org:443/wiki/Boston:11224 11225 11226 11227 11228 11229 11230 11231 11232 11233 11234 11235 11236 11237 11238,https://en.wikipedia.org:443/wiki/Iroquois:12492 12493,https://en.wikipedia.org:443/wiki/Sports_in_Brunei:1793 