sander sander-0 1960 https://www.nytimes.com:443/section/magazine?page=8:1241,https://www.nytimes.com:443/2024/05/04/us/politics/trump-biden-campaign-young-voters.html:727,https://www.nytimes.com:443/issue/magazine/2024/04/12/the-41424-issue:192,https://en.wikipedia.org:443/wiki/History_of_the_United_States_(2008%E2%80%93present):9822 9823 9824 9825,https://www.nytimes.com:443/article/trump-hush-money-trial-transcripts.html:295,https://www.nytimes.com:443/2024/05/04/opinion/alexandria-ocasio-cortez.html:1072 1073,https://en.wikipedia.org:443/wiki/Prescription_drug_prices_in_the_United_States:5575 5576 5577 5578,https://archive.curbed.com:443/2020/1/13/21026108/public-housing-faircloth-amendment-election-2020:960 961 962,https://en.wikipedia.org:443/wiki/Jack_Nicklaus:7765 7766 7767 7768 7769 7770 7771,https://en.wikipedia.org:443/wiki/Greenhouse_gas_emissions_by_the_United_States:3604,https://www.azcentral.com:443/story/sports/nfl/cardinals/2015/09/06/nfls-dynasties-decade/71605710/:633,https://en.wikipedia.org:443/wiki/Fox_Sports_1:4072,https://en.wikipedia.org:443/wiki/U.S._Immigration_and_Customs_Enforcement:5385,https://en.wikipedia.org:443/wiki/Education_in_the_United_States:8899 8900 8901,https://en.wikipedia.org:443/wiki/Terrorism_in_the_United_States:10330,https://www.nytimes.com:443/news-event/israel-hamas-gaza:589,https://en.wikipedia.org:443/wiki/New_England:8403 8404 8405,https://en.wikipedia.org:443/wiki/Democratic_Party_(United_States):11650 11651 11652 11653 11654,https://www.nytimes.com:443/live/2024/05/02/us/biden-trump-campaign:2103 2104,https://en.wikipedia.org:443/wiki/Immigrant_health_care_in_the_United_States:5042 5043 5044,https://www.nytimes.com:443/2024/04/27/us/politics/trump-trial-fact-check.html:689,https://www.nytimes.com:443/news-event/trump-ny-hush-money-case:460 461,https://en.wikipedia.org:443/wiki/The_Washington_Post:6007 6008 6009 6010 6011 6012 6013 6014,http://www.redsoxdiehard.com:80/players/unifnums.html:4269 