scrambl scrambl-0 1624 https://www.nytimes.com:443/spotlight/graphics:482,https://www.nytimes.com:443/2024/04/17/opinion/venezuela-oil-sanctions.html:610,https://www.nytimes.com:443/2023/11/21/dining/restaurant-review-bangkok-supper-club.html:890,https://en.wikipedia.org:443/wiki/Cable_television:2898 2899 2900 2901,https://www.nytimes.com:443/2024/03/30/opinion/abortion-drug-supreme-court.html:667,https://en.wikipedia.org:443/wiki/Sports_in_Yemen:1007,https://www.nytimes.com:443/2024/04/24/us/palestinian-family-gaza-war-death.html:1377,https://www.nytimes.com:443/2023/11/21/dining/restaurant-review-bangkok-supper-club.html?rref=collection%2Fcollection%2Frestaurant-guide:890,https://en.wikipedia.org:443/wiki/Spanish%E2%80%93American_War:12575 12576,https://www.nytimes.com:443/spotlight/graphics?page=10:1942,https://www.nytimes.com:443/by/mark-landler:359,https://www.azcentral.com:443/story/sports/nfl/cardinals/2015/09/06/nfls-dynasties-decade/71605710/:635,https://www.nytimes.com:443/interactive/2024/03/28/travel/things-to-do-mumbai.html:1237,https://en.wikipedia.org:443/wiki/Education_in_the_United_States:9329,https://www.nytimes.com:443/spotlight/the-great-read:218,https://www.nytimes.com:443/column/global-health:195,https://en.wikipedia.org:443/wiki/Ice_hockey:6624,https://www.nytimes.com:443/section/food:448,https://en.wikipedia.org:443/wiki/Vietnam_War:15340,https://en.wikipedia.org:443/wiki/New_England_Patriots:11524,https://www.nytimes.com:443/2024/04/24/podcasts/laufey-gen-zs-jazz-icon-sings-for-anxious-generation.html:1611,https://www.nytimes.com:443/interactive/2021/07/07/opinion/minimum-corporate-tax.html:553 