seahawk seahawk-0 1100 https://www.nfl.com:443/teams/indianapolis-colts/:610 611,https://www.sbnation.com:443/2014/10/5/6916597/nba-new-tv-deal-espn-turner-24-billion:624,https://www.nfl.com:443/standings/conference/2023/REG:651 652 653 654,https://www.nfl.com:443/standings/:723 724 725 726,https://en.wikipedia.org:443/wiki/New_England_Patriots:11530 11531 11532 11533 11534 11535 11536 11537 11538,https://en.wikipedia.org:443/wiki/Major_professional_sports_teams_of_the_United_States_and_Canada:1662,https://en.wikipedia.org:443/wiki/Sports_in_Maryland:4646 4647 4648,https://www.nfl.com:443/teams/seattle-seahawks/:596 597 598 599 600 601 602 603 604 605 606 607 608,https://en.wikipedia.org:443/wiki/2023_Big_Ten_Conference_football_season:4795 4796,https://en.wikipedia.org:443/wiki/National_Football_League:6384 6385 6386 6387 6388 6389,https://en.wikipedia.org:443/wiki/Fenway_Park:8290 8291,https://www.nfl.com:443/teams/baltimore-ravens/:611 612,https://www.azcentral.com:443/story/sports/nfl/cardinals/2015/09/06/nfls-dynasties-decade/71605710/:636 637,https://www.nfl.com:443/teams/philadelphia-eagles/:617 618 