seal seal-0 2932 https://cooking.nytimes.com:443/recipes/1013611-rhubarb-upside-down-cake:1735,https://en.wikipedia.org:443/wiki/Architecture_of_the_United_States:4965,https://www.azcentral.com:443/story/sports/nfl/cardinals/2015/09/06/nfls-dynasties-decade/71605710/:638,https://en.wikipedia.org:443/wiki/Sports_in_American_Samoa:1219,https://en.wikipedia.org:443/wiki/Speaker_of_the_United_States_House_of_Representatives:4619 4620 4621 4622,https://en.wikipedia.org:443/wiki/Tribal_sovereignty_in_the_United_States:3830 3831,https://en.wikipedia.org:443/wiki/History_of_the_United_States_(2008%E2%80%93present):9905,https://en.wikipedia.org:443/wiki/Sports_in_the_United_States:4208,https://en.wikipedia.org:443/wiki/Federal_law_enforcement_in_the_United_States:2499 2500 2501 2502 2503 2504 2505 2506 2507 2508 2509 2510 2511 2512 2513 2514,https://en.wikipedia.org:443/wiki/Vietnam_War:15355 15356,https://en.wikipedia.org:443/wiki/Boston:11462,https://en.wikipedia.org:443/wiki/Articles_of_Confederation:6354,https://en.wikipedia.org:443/wiki/Fashion_in_the_United_States:1640,https://en.wikipedia.org:443/wiki/New_England_Patriots:11539 11540 11541 11542,https://en.wikipedia.org:443/wiki/New_England:8485 8486,https://en.wikipedia.org:443/wiki/Sergeant_at_Arms_of_the_United_States_Senate:1713 1714 1715 1716,https://en.wikipedia.org:443/wiki/Drug_Enforcement_Administration:5619 5620,https://en.wikipedia.org:443/wiki/Supreme_Court_of_the_United_States:14215,https://en.wikipedia.org:443/wiki/Iroquois:12635,https://en.wikipedia.org:443/wiki/Bureau_of_Diplomatic_Security:3625 3626,https://en.wikipedia.org:443/wiki/Indiana:8898 8899,https://en.wikipedia.org:443/wiki/War_in_Afghanistan_(2001%E2%80%932021):16602 16603,https://en.wikipedia.org:443/wiki/National_symbols_of_the_United_States:1405 1406 1407 1408 1409 1410 1411 1412,https://en.wikipedia.org:443/wiki/American_Revolution:14159,https://en.wikipedia.org:443/wiki/Outline_of_the_history_of_the_United_States:4333,https://www.nytimes.com:443/live/2024/05/04/us/college-campus-protests:2539,https://www.nytimes.com:443/2024/05/04/opinion/alexandria-ocasio-cortez.html:1080,https://en.wikipedia.org:443/wiki/Columbia_(personification):2352,https://en.wikipedia.org:443/wiki/United_States_dollar:6687 6688,https://en.wikipedia.org:443/wiki/Spanish%E2%80%93American_War:12591 12592,https://en.wikipedia.org:443/wiki/Constitution_of_the_United_States:11399,https://www.nytimes.com:443/wirecutter/:2536,https://en.wikipedia.org:443/wiki/Culture_of_the_United_States:9617,https://en.wikipedia.org:443/wiki/Sports_in_Papua_New_Guinea:1065,https://www.law.cornell.edu:443/supremecourt/text/74/700:4179,https://www.theguardian.com:443/us/soccer:804 805 806 807,https://en.wikipedia.org:443/wiki/Sports_in_Kentucky:3987,https://www.nytimes.com:443/article/senate-races-2024-election.html:1009 1010,https://en.wikipedia.org:443/wiki/United_States_Public_Health_Service_Commissioned_Corps:2482 