season season-0 18335 https://en.wikipedia.org:443/wiki/Fox_Sports_1:4106 4107 4108 4109 4110 4111 4112 4113 4114 4115 4116 4117 4118 4119 4120 4121 4122 4123,https://www.patriots.com:443/news/check-out-the-2016-patriots-color-rush-jerseys-270621:1125 1126 1127 1128 1129,https://www.nytimes.com:443/section/arts/television:340 341,https://www.nytimes.com:443/2024/04/29/learning/what-should-be-done-about-the-gender-pay-gap-in-sports.html:538,https://www.saturdaydownsouth.com:443/sports/ranking-top-25-rivalries-college-sports-2023/:1440 1441 1442,https://en.wikipedia.org:443/wiki/Sports_in_Finland:2682 2683 2684 2685 2686 2687,https://en.wikipedia.org:443/wiki/U.S._Squash:702,https://www.nytimes.com:443/section/world:994,https://en.wikipedia.org:443/wiki/Soccer_in_the_United_States:7662 7663 7664 7665 7666 7667 7668 7669 7670 7671 7672 7673 7674 7675 7676 7677 7678 7679 7680 7681 7682 7683 7684 7685 7686 7687 7688 7689 7690 7691 7692 7693 7694 7695 7696 7697 7698 7699 7700 7701 7702 7703 7704 7705 7706 7707 7708 7709 7710 7711 7712 7713 7714 7715 7716 7717 7718 7719 7720 7721 7722 7723 7724 7725 7726 7727 7728 7729 7730 7731 7732 7733 7734 7735,https://www.nytimes.com:443/section/arts/dance:362 363,https://www.nfl.com:443/standings/conference/2023/REG:656 657,https://en.wikipedia.org:443/wiki/New_England:8496,https://www.azcentral.com:443/story/sports/nfl/cardinals/2015/09/06/nfls-dynasties-decade/71605710/:639 640 641 642 643 644 645 646 647 648 649,https://en.wikipedia.org:443/wiki/Sports_in_Arizona:1075 1076,https://stmarysmusings.sbnation.com:443/:630 631 632 633 634 635 636,https://en.wikipedia.org:443/wiki/College_basketball:5184 5185 5186 5187 5188 5189 5190 5191 5192 5193 5194 5195 5196 5197 5198 5199 5200 5201 5202 5203 5204 5205 5206 5207 5208 5209 5210 5211 5212 5213 5214 5215 5216 5217 5218 5219 5220,https://www.patriots.com:443/cheerleaders/pat-patriot:674 675 676,https://www.nfl.com:443/teams/baltimore-ravens/:614,https://www.usatoday.com:443/story/sports/soccer/2017/02/02/nwsl-matches-will-be-shown-on-lifetime-each-saturday/97394336/:284 285 286 287,https://en.wikipedia.org:443/wiki/Sports_in_Venezuela:1898 1899 1900,https://www.patriots.com:443/news/ben-coates-elected-to-patriots-hall-of-fame-140866:1406 1407 1408 1409 1410 1411 1412 1413 1414 1415 1416,https://en.wikipedia.org:443/wiki/Volleyball:4243 4244 4245 4246 4247,https://en.wikipedia.org:443/wiki/NBA:6202 6203 6204 6205 6206 6207 6208 6209 6210 6211 6212 6213 6214 6215 6216 6217 6218 6219 6220 6221 6222 6223 6224 6225 6226 6227 6228 6229 6230 6231 6232 6233 6234 6235 6236 6237 6238 6239 6240 6241 6242 6243 6244 6245 6246 6247 6248 6249 6250 6251 6252 6253 6254 6255 6256 6257 6258 6259 6260 6261 6262 6263 6264 6265 6266 6267 6268 6269 6270 6271 6272 6273 6274 6275 6276 6277 6278 6279 6280 6281 6282 6283 6284 6285 6286 6287 6288 6289 6290 6291 6292 6293 6294 6295 6296 6297 6298 6299 6300 6301 6302 6303 6304 6305 6306 6307 6308 6309 6310 6311 6312 6313 6314 6315 6316 6317 6318,https://en.wikipedia.org:443/wiki/Sports_in_South_Carolina:1499 1500 1501 1502,https://www.nytimes.com:443/section/arts/television?page=3:640 641 642 643,https://en.wikipedia.org:443/wiki/Major_professional_sports_teams_of_the_United_States_and_Canada:1665 1666 1667 1668 1669 1670 1671 1672 1673,https://en.wikipedia.org:443/wiki/Iroquois:12645 12646,https://en.wikipedia.org:443/wiki/Sports_in_Uzbekistan:708 709,https://www.nytimes.com:443/news-event/weather-climate:409,https://en.wikipedia.org:443/wiki/Sports_in_Kentucky:3990 3991 3992 3993 3994 3995 3996 3997 3998 3999 4000 4001 4002 4003 4004 4005 4006 4007,https://en.wikipedia.org:443/wiki/Culture_of_the_United_States:9624 9625 9626 9627 9628 9629 9630 9631 9632 9633,https://en.wikipedia.org:443/wiki/War_in_Afghanistan_(2001%E2%80%932021):16609 16610 16611,https://www.nytimes.com:443/section/sports:236 237 238,https://en.wikipedia.org:443/wiki/Sports_in_Yemen:1011,https://en.wikipedia.org:443/wiki/Sports_teams_in_Virginia:988 989,https://en.wikipedia.org:443/wiki/Sports_in_Belize:935 936,https://www.sportsbusinessjournal.com:443/Journal/Issues/2012/04/02/Media/Fox-channel.aspx:1021,https://en.wikipedia.org:443/wiki/New_England_Patriots:11546 11547 11548 11549 11550 11551 11552 11553 11554 11555 11556 11557 11558 11559 11560 11561 11562 11563 11564 11565 11566 11567 11568 11569 11570 11571 11572 11573 11574 11575 11576 11577 11578 11579 11580 11581 11582 11583 11584 11585 11586 11587 11588 11589 11590 11591 11592 11593 11594 11595 11596 11597 11598 11599 11600 11601 11602 11603 11604 11605 11606 11607 11608 11609 11610 11611 11612 11613 11614 11615 11616 11617 11618 11619 11620 11621 11622 11623 11624 11625 11626 11627 11628 11629 11630 11631 11632 11633 11634 11635 11636 11637 11638 11639 11640 11641 11642 11643 11644 11645 11646 11647 11648 11649 11650 11651 11652 11653 11654 11655 11656 11657 11658 11659 11660 11661 11662 11663 11664 11665 11666 11667 11668 11669 11670 11671 11672 11673 11674 11675 11676 11677 11678 11679 11680 11681 11682 11683 11684 11685 11686 11687 11688 11689 11690 11691 11692 11693 11694,https://en.wikipedia.org:443/wiki/Professional_Disc_Golf_Association:1137,https://www.nytimes.com:443/issue/magazine/2024/04/12/the-41424-issue:194,https://www.theguardian.com:443/sport/nhl:581 582 583 584,https://en.wikipedia.org:443/wiki/Summer_Olympic_Games:4907,https://en.wikipedia.org:443/wiki/Jack_Nicklaus:7879 7880 7881 7882 7883 7884,https://www.indycar.com:443/news/2022/02/02-22-internationaltv:475 476 477 478 479 480 481 482 483,https://en.wikipedia.org:443/wiki/Boston_Red_Sox:9723 9724 9725 9726 9727 9728 9729 9730 9731 9732 9733 9734 9735 9736 9737 9738 9739 9740 9741 9742 9743 9744 9745 9746 9747 9748 9749 9750 9751 9752 9753 9754 9755 9756 9757 9758 9759 9760 9761 9762 9763 9764 9765 9766 9767 9768 9769 9770 9771 9772 9773 9774 9775 9776 9777 9778 9779 9780 9781 9782 9783 9784 9785 9786 9787 9788 9789 9790 9791 9792 9793 9794 9795 9796 9797 9798 9799 9800 9801 9802 9803 9804 9805 9806 9807 9808 9809 9810 9811 9812 9813 9814 9815 9816 9817 9818 9819 9820 9821 9822 9823 9824 9825 9826 9827 9828 9829 9830 9831 9832 9833 9834 9835 9836 9837 9838 9839 9840 9841 9842 9843 9844 9845 9846 9847,https://www.nytimes.com:443/section/theater:444 445 446,https://en.wikipedia.org:443/wiki/The_Washington_Post:6062,https://en.wikipedia.org:443/wiki/Sports_in_Ghana:2196,https://www.nfl.com:443/standings/:728 729,https://www.nytimes.com:443/section/fashion?page=9:1988 1989 1990 1991,https://www.tlc.com:443/weddings/top-trends-for-spring-wedding-2024:569 570 571 572 573 574 575 576 577 578 579 580,https://www.tlc.com:443/inside-tlc/TLC-Casting:949 950 951,https://en.wikipedia.org:443/wiki/United_States_Polo_Association:1274 1275,https://en.wikipedia.org:443/wiki/Portal:Current_events:2570 2571 2572 2573 2574 2575 2576 2577 2578,https://en.wikipedia.org:443/wiki/MLS:8945 8946 8947 8948 8949 8950 8951 8952 8953 8954 8955 8956 8957 8958 8959 8960 8961 8962 8963 8964 8965 8966 8967 8968 8969 8970 8971 8972 8973 8974 8975 8976 8977 8978 8979 8980 8981 8982 8983 8984 8985 8986 8987 8988 8989 8990 8991 8992 8993 8994 8995 8996 8997 8998 8999 9000 9001 9002 9003 9004 9005 9006 9007 9008 9009 9010 9011 9012 9013 9014 9015 9016 9017 9018 9019 9020 9021 9022 9023 9024 9025 9026 9027 9028 9029 9030 9031 9032 9033 9034 9035 9036 9037 9038 9039 9040 9041 9042 9043 9044 9045 9046 9047 9048 9049 9050 9051,https://en.wikipedia.org:443/wiki/U.S._Immigration_and_Customs_Enforcement:5415,https://cooking.nytimes.com:443/recipes/1022283-country-panzanella-with-watermelon-dressing:1625,https://en.wikipedia.org:443/wiki/American_Revolution:14174,https://en.wikipedia.org:443/wiki/Arkansas_River:2227,https://en.wikipedia.org:443/wiki/USA_Cycling:1190,https://en.wikipedia.org:443/wiki/Environmental_issues_in_the_United_States:3388,https://en.wikipedia.org:443/wiki/Louise_Suggs:1051,https://en.wikipedia.org:443/wiki/Sports_in_the_United_States:4211 4212 4213 4214 4215 4216 4217 4218 4219 4220,https://www.packers.com:443/community/shareholders:536 537,https://www.nytimes.com:443/interactive/2024/03/28/travel/things-to-do-mumbai.html:1245 1246,https://www.nytimes.com:443/2023/11/21/dining/restaurant-review-bangkok-supper-club.html:893,https://www.nytimes.com:443/live/2024/01/19/world/israel-hamas-news/a-un-official-says-israeli-treatment-of-detainees-may-amount-to-torture?smid=url-share:2998,https://cooking.nytimes.com:443/recipes/1013611-rhubarb-upside-down-cake:1736 1737,https://www.nytimes.com:443/section/realestate:600,https://nevadasportsnet.com:443/news/reporters/mw-football-attendance-analysis-biggest-risers-and-fallers-year-over-year:234 235 236 237,https://en.wikipedia.org:443/wiki/WNBA%27s_Top_15_Team:622 623 624 625 626 627,https://en.wikipedia.org:443/wiki/USA_Cricket:1592 1593,https://en.wikipedia.org:443/wiki/United_States_men%27s_national_soccer_team:7147 7148 7149 7150,https://en.wikipedia.org:443/wiki/Rugby_union_at_the_Summer_Olympics:1778,https://en.wikipedia.org:443/wiki/Carlos_Bocanegra:2375 2376 2377 2378 2379 2380 2381 2382 2383 2384 2385 2386 2387 2388 2389,https://en.wikipedia.org:443/wiki/Red_River_of_the_South:1933,https://www.fmfstateofmind.com:443/:716 717 718,https://en.wikipedia.org:443/wiki/Cold_War:17158 17159,https://www.sportsbusinessjournal.com:443/Articles/2023/10/23/mls-sets-attendance-record-for-season:691 692 693 694 695 696 697,https://en.wikipedia.org:443/wiki/MLB_Network:3958 3959 3960 3961 3962 3963 3964 3965 3966 3967 3968 3969 3970 3971 3972 3973 3974 3975 3976 3977 3978 3979 3980 3981 3982 3983 3984 3985 3986 3987 3988 3989 3990 3991 3992,https://en.wikipedia.org:443/wiki/History_of_the_United_States_(2008%E2%80%93present):9909 9910 9911,https://en.wikipedia.org:443/wiki/Southern_United_States:10078,https://en.wikipedia.org:443/wiki/Sports_in_Armenia:2149 2150,https://en.wikipedia.org:443/wiki/Indiana:8902 8903,https://www.forbes.com:443/sites/zachslaton/2012/10/15/how-the-mls-playoff-format-punishes-ambitious-teams/:821 822 823 824 825 826 827 828 829 830 831 832 833 834 835 836 837 838 839 840,https://en.wikipedia.org:443/wiki/Henley_Royal_Regatta:3349 3350 3351,https://www.nytimes.com:443/2024/05/02/us/politics/abortion-ballot-measures-2024.html:966,https://www.usatoday.com:443/for-subscribers/:233,https://en.wikipedia.org:443/wiki/Basketball_in_the_United_States:1066 1067 1068 1069 1070 1071 1072,https://www.sbnation.com:443/2014/10/5/6916597/nba-new-tv-deal-espn-turner-24-billion:628 629 630 631 632 633,https://www.foodnetwork.com:443/:726 727,https://cooking.nytimes.com:443/recipes/1018626-eggs-benedict:1713 1714,https://www.sportsbusinessjournal.com:443/Subscribe/Subscription-Landing.aspx:775,https://www.tlc.com:443/shows/90-day-fiance-happily-ever-after/photo-galleries/90-day-fiance-happily-ever-after-couples-bios-season-8:737 738 739 740 741 742 743 744,https://www.sportsbusinessjournal.com:443/Archive/Sections/International.aspx:865,https://en.wikipedia.org:443/wiki/Sports_in_Washington:3905 3906 3907 3908 3909 3910 3911 3912 3913 3914 3915 3916 3917 3918 3919 3920 3921 3922 3923 3924 3925 3926 3927 3928 3929 3930 3931 3932 3933 3934 3935 3936 3937 3938 3939 3940 3941 3942 3943 3944 3945 3946 3947 3948 3949 3950 3951 3952 3953 3954 3955 3956 3957 3958 3959 3960 3961 3962 3963 3964 3965 3966 3967 3968 3969 3970 3971 3972 3973,https://en.wikipedia.org:443/wiki/National_League_(baseball):3136 3137 3138 3139 3140 3141 3142 3143 3144 3145 3146 3147 3148 3149 3150 3151 3152 3153 3154 3155 3156 3157 3158 3159 3160 3161 3162 3163 3164 3165 3166 3167 3168 3169 3170 3171 3172 3173 3174 3175 3176 3177 3178 3179 3180 3181 3182 3183 3184,https://en.wikipedia.org:443/wiki/Sports_in_France:2168 2169 2170,https://www.nytimes.com:443/section/t-magazine:871,https://en.wikipedia.org:443/wiki/American_League:1968 1969 1970 1971 1972 1973 1974 1975 1976 1977 1978 1979 1980 1981 1982 1983 1984 1985 1986 1987 1988,https://en.wikipedia.org:443/wiki/Gymnastics_in_the_United_States:1772 1773 1774 1775 1776 1777 1778 1779 1780 1781 1782 1783 1784 1785,https://en.wikipedia.org:443/wiki/Vietnam_War:15371 15372 15373 15374 15375,https://commons.wikimedia.org:443/wiki/Category:Sports_in_the_United_States:778 779,https://cooking.nytimes.com:443/recipes/1025421-creole-broiled-shrimp-and-baby-corn:1074 1075 1076 1077 1078,https://www.sbncollegehockey.com:443/high-school-hockey/2015/3/7/8167923/2015-minnesota-boys-high-school-total-attendance-record-135618:302,https://www.bbc.co.uk:443/news/world-us-canada-55358342:452,https://www.nytimes.com:443/section/magazine?page=8:1270 1271,https://en.wikipedia.org:443/wiki/USA_Baseball:5220 5221 5222 5223 5224 5225 5226 5227,https://www.patriots.com:443/team/players-roster/:773,https://cooking.nytimes.com:443/christmas:1496,https://en.wikipedia.org:443/wiki/Columbia_(personification):2355,https://www.ncaa.org:443/sports/2021/4/21/division-ii-academics.aspx:302,https://en.wikipedia.org:443/wiki/College_athletics_in_the_United_States:4340 4341 4342 4343 4344 4345 4346 4347 4348,https://en.wikipedia.org:443/wiki/Sports_in_South_Korea:1833,https://www.commanders.com:443/news/commanders-agree-to-trade-de-montez-sweat-to-chicago-bears:551 552 553,https://en.wikipedia.org:443/wiki/Major_Arena_Soccer_League:2224 2225 2226 2227 2228 2229 2230 2231 2232 2233 2234 2235 2236 2237 2238 2239 2240 2241 2242 2243 2244 2245 2246 2247 2248 2249 2250 2251 2252 2253 2254 2255 2256 2257 2258 2259 2260 2261 2262 2263 2264 2265 2266 2267 2268 2269 2270 2271,https://www.nytimes.com:443/section/fashion:925 926,https://www.nytimes.com:443/2023/11/21/dining/restaurant-review-bangkok-supper-club.html?rref=collection%2Fcollection%2Frestaurant-guide:893,https://en.wikipedia.org:443/wiki/2023_Big_Ten_Conference_football_season:4799 4800 4801 4802 4803 4804 4805 4806 4807 4808 4809 4810 4811 4812 4813 4814 4815 4816 4817 4818 4819 4820 4821 4822 4823 4824 4825 4826 4827 4828 4829 4830 4831 4832 4833 4834 4835,https://en.wikipedia.org:443/wiki/Snowboarding:3274 3275 3276 3277 3278 3279,https://en.wikipedia.org:443/wiki/Agriculture_in_the_United_States:4777 4778,https://en.wikipedia.org:443/wiki/National_Football_League:6398 6399 6400 6401 6402 6403 6404 6405 6406 6407 6408 6409 6410 6411 6412 6413 6414 6415 6416 6417 6418 6419 6420 6421 6422 6423 6424 6425 6426 6427 6428 6429 6430 6431 6432 6433 6434 6435 6436 6437 6438 6439 6440 6441 6442 6443 6444 6445 6446 6447 6448 6449 6450 6451 6452 6453 6454 6455 6456 6457 6458 6459 6460 6461 6462 6463 6464 6465 6466 6467 6468 6469 6470 6471 6472 6473 6474 6475 6476 6477 6478 6479 6480 6481 6482 6483 6484 6485 6486 6487 6488 6489 6490 6491 6492,https://en.wikipedia.org:443/wiki/Ice_hockey:6633 6634 6635 6636 6637 6638 6639 6640 6641 6642 6643 6644 6645 6646 6647 6648 6649 6650 6651 6652 6653 6654,https://en.wikipedia.org:443/wiki/Sports_in_Poland:2365 2366 2367,https://cooking.nytimes.com:443/about-us:772,https://en.wikipedia.org:443/wiki/Spanish%E2%80%93American_War:12597,https://www.nfl.com:443/teams/philadelphia-eagles/:620,https://www.almanac.com:443/fact/how-much-is-two-bits-and-where:203,https://www.nytimes.com:443/section/reader-center:542,https://www.independent.co.uk:443/tv/travel-smart:938,https://www.nytimes.com:443/2022/02/11/sports/horse-racing/medina-spirit-kentucky-derby-necropsy.html?searchResultPosition=2:566,https://en.wikipedia.org:443/wiki/Beach_volleyball:4045 4046 4047 4048 4049 4050 4051 4052,https://en.wikipedia.org:443/wiki/Sports_in_India:13987 13988 13989 13990 13991 13992 13993 13994 13995 13996 13997 13998 13999 14000 14001 14002 14003,https://www.nfl.com:443/teams/indianapolis-colts/:613,https://en.wikipedia.org:443/wiki/Francis_Olympic_Field:1780 1781,https://www.cookingchanneltv.com:443/recipes/tia-mowry/spaghetti-and-turkey-meatballs-2803024:723,https://www.nytimes.com:443/wirecutter/:2538 2539 2540,https://en.wikipedia.org:443/wiki/Sports_in_Estonia:1702 1703 1704 1705 1706,https://www.forbes.com:443/2008/09/09/mls-soccer-beckham-biz-sports-cz_kb_0909mlsvalues.html:364 365 366 367 368 369 370,https://bolavip.com:443/en:744,https://www.forbes.com:443/sites/mikeozanian/2019/05/10/david-beckham-reportedly-buys-stake-in-his-company-at-150-million-valuation/:214,https://www.nytimes.com:443/spotlight/podcasts?page=6:2648,https://en.wikipedia.org:443/wiki/Fenway_Park:8299 8300 8301 8302 8303 8304 8305 8306 8307 8308 8309 8310 8311 8312 8313 8314 8315 8316 8317 8318 8319 8320 8321 8322 8323 8324 8325 8326 8327 8328 8329 8330 8331 8332 8333 8334 8335 8336 8337 8338,https://en.wikipedia.org:443/wiki/Category:Use_mdy_dates_from_October_2023:812 813 814 815 816 817 818 819 820 821 822 823 824 825 826 827 828 829 830 831 832 833 834 835 836 837 838 839 840 841 842 843,https://en.wikipedia.org:443/wiki/Baseball:8558 8559 8560 8561 8562 8563 8564 8565 8566 8567 8568 8569 8570 8571 8572,https://en.wikipedia.org:443/wiki/Olympic_Games:10347,https://en.wikipedia.org:443/wiki/IndyCar_Series:6316 6317 6318 6319 6320 6321 6322 6323 6324 6325 6326 6327 6328 6329 6330 6331 6332 6333 6334 6335 6336 6337 6338 6339 6340 6341 6342 6343 6344 6345 6346 6347 6348 6349 6350 6351 6352 6353 6354 6355 6356 6357 6358 6359 6360 6361 6362 6363 6364 6365 6366 6367 6368 6369 6370 6371 6372 6373 6374 6375 6376 6377 6378 6379 6380 6381 6382 6383 6384 6385 6386 6387 6388 6389 6390 6391 6392 6393 6394 6395 6396 6397 6398 6399 6400 6401 6402 6403 6404 6405 6406,https://www.theguardian.com:443/us/soccer:816 817 818 819 820 821 822,https://en.wikipedia.org:443/wiki/Boston:11477 11478 11479 11480 11481 11482 11483,https://en.wikipedia.org:443/wiki/Inter_Miami:6659 6660 6661 6662 6663 6664 6665 6666 6667 6668 6669 6670 6671 6672 6673 6674 6675 6676 6677 6678 6679 6680 6681 6682 6683 6684 6685 6686 6687 6688 6689 6690 6691 6692 6693 6694 6695 6696 6697 6698 6699 6700 6701 6702 6703 6704 6705 6706 6707 6708 6709 6710 6711 6712,https://en.wikipedia.org:443/wiki/Sports_in_Maryland:4651 4652 4653 4654 4655 4656 4657 4658,https://en.wikipedia.org:443/wiki/Sports_in_El_Salvador:3037,https://www.independent.co.uk:443/sport/us-sport/nba/draft-2020-what-time-start-uk-b1725070.html:659,https://en.wikipedia.org:443/wiki/Sports_in_Uruguay:913 914 915,https://en.wikipedia.org:443/wiki/United_States_Aquatic_Sports:756,https://spoiler.bolavip.com:443/en/celebrities/ryan-gosling-net-worth:471 472 