seattl seattl-0 5002 https://www.nfl.com:443/teams/baltimore-ravens/:615 616,https://en.wikipedia.org:443/wiki/Literacy_in_the_United_States:5248,https://en.wikipedia.org:443/wiki/West_Coast_of_the_United_States:2617 2618 2619 2620 2621 2622 2623 2624 2625,https://en.wikipedia.org:443/wiki/Terrorism_in_the_United_States:10392 10393 10394 10395 10396 10397 10398 10399 10400,https://en.wikipedia.org:443/wiki/Boston_Red_Sox:9848 9849 9850 9851 9852 9853 9854,https://en.wikipedia.org:443/wiki/United_States_men%27s_national_soccer_team:7152 7153 7154 7155 7156 7157 7158,https://en.wikipedia.org:443/wiki/NBA:6319 6320 6321 6322 6323 6324 6325,https://en.wikipedia.org:443/wiki/Ice_hockey:6656 6657,https://www.nfl.com:443/standings/conference/2023/REG:658 659 660,https://en.wikipedia.org:443/wiki/List_of_mountains_of_the_United_States:9374 9375 9376,https://meta.wikimedia.org:443/wiki/Category:United_States:386,https://en.wikipedia.org:443/wiki/Drug_Enforcement_Administration:5625,https://en.wikipedia.org:443/wiki/Soccer_in_the_United_States:7736 7737 7738 7739 7740 7741 7742 7743,https://en.wikipedia.org:443/wiki/New_England_Patriots:11695 11696 11697 11698 11699 11700 11701 11702 11703 11704,https://www.nfl.com:443/teams/philadelphia-eagles/:621 622,https://en.wikipedia.org:443/wiki/Timeline_of_United_States_inventions_(after_1991):2398,https://www.nytimes.com:443/2024/05/03/opinion/nuclear-power-energy.html:671,https://en.wikipedia.org:443/wiki/List_of_mountain_peaks_of_the_United_States:5782,https://www.azcentral.com:443/story/sports/nfl/cardinals/2015/09/06/nfls-dynasties-decade/71605710/:650,https://en.wikipedia.org:443/wiki/USA_Baseball:5231,https://en.wikipedia.org:443/wiki/Great_Recession_in_the_United_States:4620,https://www.forbes.com:443/sites/carlieporterfield/2022/07/26/heres-why-pickleball-the-fastest-growing-sport-in-america-is-bill-gates-favorite-game/:393 394,https://en.wikipedia.org:443/wiki/MLS:9057 9058 9059 9060 9061 9062 9063 9064 9065 9066 9067 9068 9069 9070 9071 9072 9073 9074 9075 9076 9077,https://en.wikipedia.org:443/wiki/USA_Cricket:1594,https://en.wikipedia.org:443/wiki/American_League:1989 1990 1991 1992 1993 1994 1995,https://en.wikipedia.org:443/wiki/List_of_current_United_States_district_judges:9237 9238 9239 9240 9241 9242 9243 9244 9245 9246 9247 9248 9249,https://www.sbnation.com:443/2014/10/5/6916597/nba-new-tv-deal-espn-turner-24-billion:634 635,https://www.theatlantic.com:443/magazine/archive/2023/01/homelessness-affordable-housing-crisis-democrats-causes/672224/:1245 1246 1247 1248,https://en.wikipedia.org:443/wiki/Municipal_council:2226,https://en.wikipedia.org:443/wiki/National_League_(baseball):3185 3186,https://en.wikipedia.org:443/wiki/Indiana:8905 8906,https://en.wikipedia.org:443/wiki/Sports_in_Washington:3974,https://en.wikipedia.org:443/wiki/Boston:11491,https://www.nytimes.com:443/2024/04/12/fashion/weddings/elena-bauer-joshua-fagel-wedding.html:599,https://en.wikipedia.org:443/wiki/Fashion_in_the_United_States:1643 1644,https://en.wikipedia.org:443/wiki/Housing_in_the_United_States:1390 1391,https://www.nfl.com:443/teams/seattle-seahawks/:610 611 612 613 614 615,https://en.wikipedia.org:443/wiki/The_Washington_Post:6064 6065 6066,https://en.wikipedia.org:443/wiki/National_symbols_of_the_United_States:1415,https://www.forbes.com:443/2008/09/09/mls-soccer-beckham-biz-sports-cz_kb_0909mlsvalues.html:373,https://www.nytimes.com:443/live/2024/05/02/us/biden-trump-campaign:2118,https://en.wikipedia.org:443/wiki/Category:Use_mdy_dates_from_October_2023:844,https://en.wikipedia.org:443/wiki/Environmental_issues_in_the_United_States:3389,https://www.nfl.com:443/standings/:730 731 732,https://en.wikipedia.org:443/wiki/Major_Arena_Soccer_League:2272 2273 2274,https://en.wikipedia.org:443/wiki/College_basketball:5221,https://en.wikipedia.org:443/wiki/National_Football_League:6493 6494 6495 6496,https://en.wikipedia.org:443/wiki/Jack_Nicklaus:7885,https://en.wikipedia.org:443/wiki/Major_professional_sports_teams_of_the_United_States_and_Canada:1674 1675 1676 1677 1678 1679 1680 1681,https://en.wikipedia.org:443/wiki/War_in_Afghanistan_(2001%E2%80%932021):16612,https://en.wikipedia.org:443/wiki/Architecture_of_the_United_States:4971 4972 4973,https://en.wikipedia.org:443/wiki/Agriculture_in_the_United_States:4779,https://en.wikipedia.org:443/wiki/2023_Big_Ten_Conference_football_season:4836 4837 4838 4839,https://en.wikipedia.org:443/wiki/Immigrant_health_care_in_the_United_States:5095,https://en.wikipedia.org:443/wiki/WNBA%27s_Top_15_Team:628 629 630 631 632 633 634,https://www.nfl.com:443/teams/indianapolis-colts/:614 615,https://www.theguardian.com:443/sport/nhl:585 586,https://en.wikipedia.org:443/wiki/Inter_Miami:6724 6725 6726,https://en.wikipedia.org:443/wiki/Supreme_Court_of_the_United_States:14247 14248,https://en.wikipedia.org:443/wiki/Fenway_Park:8378 8379 8380,https://en.wikipedia.org:443/wiki/Sports_in_Arizona:1077,https://en.wikipedia.org:443/wiki/Culture_of_the_United_States:9634 9635 