seau seau-0 445 https://en.wikipedia.org:443/wiki/Sports_in_American_Samoa:1225,https://en.wikipedia.org:443/wiki/MLB_Network:3994,https://en.wikipedia.org:443/wiki/National_Federation_of_State_High_School_Associations:1359,https://en.wikipedia.org:443/wiki/New_England_Patriots:11705 11706 11707 11708,https://www.azcentral.com:443/story/sports/nfl/cardinals/2015/09/06/nfls-dynasties-decade/71605710/:651,https://en.wikipedia.org:443/wiki/Sports_in_Samoa:1522 