second second-0 1491 https://en.wikipedia.org:443/wiki/Sports_in_Namibia:946,https://en.wikipedia.org:443/wiki/Summer_Olympic_Games:4910 4911,https://en.wikipedia.org:443/wiki/Henley_Royal_Regatta:3354,https://theconversation.com:443/the-rise-and-rise-of-ultimate-fighting-and-why-boxing-is-now-so-passe-55910:515,https://www.azcentral.com:443/story/sports/nfl/cardinals/2015/09/06/nfls-dynasties-decade/71605710/:652 653,https://www.saturdaydownsouth.com:443/sports/ranking-top-25-rivalries-college-sports-2023/:1443,https://cooking.nytimes.com:443/recipes/1024760-chocolate-layer-cake:1934,https://en.wikipedia.org:443/wiki/Fenway_Park:8381,https://en.wikipedia.org:443/wiki/United_States_Declaration_of_Independence:9410,https://en.wikipedia.org:443/wiki/Sports_in_Brunei:1839 1840 1841,https://en.wikipedia.org:443/wiki/New_England_Patriots:11712 11713 11714,https://cooking.nytimes.com:443/recipes/1018626-eggs-benedict:1715 1716 1717 1718,https://en.wikipedia.org:443/wiki/IndyCar_Series:6414,https://en.wikipedia.org:443/wiki/Sports_in_India:14009,https://en.wikipedia.org:443/wiki/Ice_hockey:6658,https://www.nytimes.com:443/video/us/100000007348445/breonna-taylor-death-cops.html:886,https://en.wikipedia.org:443/wiki/College_basketball:5222 5223 5224 5225 5226 5227 5228 5229 5230 5231 5232 5233 5234 5235 5236 5237 5238 5239 5240 5241 5242 5243 5244 5245,https://en.wikipedia.org:443/wiki/Volleyball:4248 4249,https://commons.wikimedia.org:443/wiki/Category:War_in_Afghanistan_(2001%E2%80%932021):1323 