shutout shutout-0 333 https://en.wikipedia.org:443/wiki/Boston_Red_Sox:10197 10198 10199,https://en.wikipedia.org:443/wiki/MLS:9307 9308 9309 9310,https://en.wikipedia.org:443/wiki/USA_Baseball:5342,https://en.wikipedia.org:443/wiki/Baseball:8709 8710,https://www.azcentral.com:443/story/sports/nfl/cardinals/2015/09/06/nfls-dynasties-decade/71605710/:658 