sid sid-0 350 https://en.wikipedia.org:443/wiki/Greenhouse_gas_emissions_by_the_United_States:3672,https://en.wikipedia.org:443/wiki/Fenway_Park:8561,http://www.redsoxdiehard.com:80/players/unifnums.html:4394,https://www.azcentral.com:443/story/sports/nfl/cardinals/2015/09/06/nfls-dynasties-decade/71605710/:659 660,https://en.wikipedia.org:443/wiki/Baseball:8714 