skirt skirt-0 518 https://en.wikipedia.org:443/wiki/Fashion_in_the_United_States:1707,https://en.wikipedia.org:443/wiki/History_of_the_United_States_(1945%E2%80%931964):7565 7566,https://en.wikipedia.org:443/wiki/Iroquois:13117 13118 13119 13120 13121 13122 13123,https://en.wikipedia.org:443/wiki/Baseball:8768,https://en.wikipedia.org:443/wiki/Sports_in_El_Salvador:3089,https://www.azcentral.com:443/story/sports/nfl/cardinals/2015/09/06/nfls-dynasties-decade/71605710/:665,https://en.wikipedia.org:443/wiki/Henley_Royal_Regatta:3436 