sneak sneak-0 612 https://www.nytimes.com:443/video/op-docs:278,https://www.nytimes.com:443/2017/06/26/health/undocumented-immigrants-health-care.html:1008,https://www.nytimes.com:443/section/world:1039,https://www.nytimes.com:443/section/fashion?page=9:2074,https://www.nytimes.com:443/spotlight/nyt-events?page=2:525,https://en.wikipedia.org:443/wiki/Fenway_Park:8629,https://www.saturdaydownsouth.com:443/sports/ranking-top-25-rivalries-college-sports-2023/:1493,https://en.wikipedia.org:443/wiki/Beach_volleyball:4301 4302,https://www.azcentral.com:443/story/sports/nfl/cardinals/2015/09/06/nfls-dynasties-decade/71605710/:669 