solid solid-0 1830 https://en.wikipedia.org:443/wiki/Carlos_Bocanegra:2501,https://www.nytimes.com:443/2024/03/30/opinion/abortion-drug-supreme-court.html:693,https://spoiler.bolavip.com:443/en/celebrities/ryan-gosling-net-worth:488,https://en.wikipedia.org:443/wiki/Democratic_Party_(United_States):12143 12144 12145,https://en.wikipedia.org:443/wiki/History_of_the_United_States_(1945%E2%80%931964):7650,https://www.businessinsider.com:443/s:564 565 566 567,https://www.businessinsider.com:443/guides/tech:964 965,https://www.forbes.com:443/sites/greatspeculations/2019/09/22/a-strange-new-world-economic-slowdown-liquidity-issues/:737,https://en.wikipedia.org:443/wiki/United_States_dollar:6971,https://en.wikipedia.org:443/wiki/Ice_hockey:6965 6966,https://en.wikipedia.org:443/wiki/Literacy_in_the_United_States:5451,https://en.wikipedia.org:443/wiki/West_Coast_of_the_United_States:2719,https://en.wikipedia.org:443/wiki/Baseball:8858,https://en.wikipedia.org:443/wiki/Agriculture_in_the_United_States:4934,https://en.wikipedia.org:443/wiki/New_England:8807,https://en.wikipedia.org:443/wiki/Prescription_drug_prices_in_the_United_States:5746,https://www.fmfstateofmind.com:443/:751,https://en.wikipedia.org:443/wiki/Olympic_Games:10724,https://en.wikipedia.org:443/wiki/Greenhouse_gas_emissions_by_the_United_States:3709,https://en.wikipedia.org:443/wiki/Southern_United_States:10424 10425 10426 10427,https://www.azcentral.com:443/story/sports/nfl/cardinals/2015/09/06/nfls-dynasties-decade/71605710/:670,https://en.wikipedia.org:443/wiki/Northern_United_States:648,https://en.wikipedia.org:443/wiki/Jack_Nicklaus:8241,https://en.wikipedia.org:443/wiki/Environmental_issues_in_the_United_States:3473 3474 3475 3476 3477 3478 3479 3480 3481 3482 3483 3484 3485 3486,https://en.wikipedia.org:443/wiki/Special_district_(United_States):1403 1404 