sprint sprint-0 1339 https://en.wikipedia.org:443/wiki/Sports_in_Maryland:4967 4968,https://www.nytimes.com:443/2024/05/03/opinion/nuclear-power-energy.html:710 711,https://en.wikipedia.org:443/wiki/Sports_in_Brunei:1996 1997,https://en.wikipedia.org:443/wiki/Olympic_Games:11093,https://en.wikipedia.org:443/wiki/Fox_Sports_1:4674 4675,https://en.wikipedia.org:443/wiki/MLB_Network:4459,https://en.wikipedia.org:443/wiki/2018_Rugby_World_Cup_Sevens:965 966,https://www.azcentral.com:443/story/sports/nfl/cardinals/2015/09/06/nfls-dynasties-decade/71605710/:675,https://en.wikipedia.org:443/wiki/Summer_Olympic_Games:5232,https://en.wikipedia.org:443/wiki/Sports_in_Estonia:1851,https://en.wikipedia.org:443/wiki/Sports_in_Kentucky:4174 4175 4176,https://en.wikipedia.org:443/wiki/Baseball:9043 9044,https://en.wikipedia.org:443/wiki/IndyCar_Series:6906,https://en.wikipedia.org:443/wiki/Sports_in_Poland:2561 2562 2563,https://en.wikipedia.org:443/wiki/Sports_in_India:15042 15043 15044,https://en.wikipedia.org:443/wiki/Snowboarding:4009 4010,https://en.wikipedia.org:443/wiki/Ice_hockey:7109,https://en.wikipedia.org:443/wiki/Volleyball:4736 4737,https://www.nytimes.com:443/interactive/2021/07/07/opinion/minimum-corporate-tax.html:589,https://en.wikipedia.org:443/wiki/Henley_Royal_Regatta:3475 3476,https://en.wikipedia.org:443/wiki/Beach_volleyball:4434 