starr starr-0 1030 https://en.wikipedia.org:443/wiki/Bureau_of_Diplomatic_Security:4188 4189 4190 4191,https://en.wikipedia.org:443/wiki/Constitution_of_the_United_States:11955,https://en.wikipedia.org:443/wiki/Terrorism_in_the_United_States:10964,https://en.wikipedia.org:443/wiki/History_of_the_United_States_(1945%E2%80%931964):7796,https://en.wikipedia.org:443/wiki/War_in_Afghanistan_(2001%E2%80%932021):17550,https://en.wikipedia.org:443/wiki/List_of_current_United_States_district_judges:10152 10153,https://www.azcentral.com:443/story/sports/nfl/cardinals/2015/09/06/nfls-dynasties-decade/71605710/:681 682 683,https://en.wikipedia.org:443/wiki/Sports_in_Samoa:1620,https://en.wikipedia.org:443/wiki/National_Football_League:6811,https://en.wikipedia.org:443/wiki/List_of_mountains_of_the_United_States:9739,https://en.wikipedia.org:443/wiki/Cold_War:18668 18669,https://en.wikipedia.org:443/wiki/New_England:9010,https://en.wikipedia.org:443/wiki/Democratic_Party_(United_States):12304,https://en.wikipedia.org:443/wiki/Boston_Red_Sox:10967 