steeler steeler-0 1511 https://commons.wikimedia.org:443/wiki/Category:War_in_Afghanistan_(2001%E2%80%932021):1374 1375,https://en.wikipedia.org:443/wiki/Major_professional_sports_teams_of_the_United_States_and_Canada:1812,https://www.azcentral.com:443/story/sports/nfl/cardinals/2015/09/06/nfls-dynasties-decade/71605710/:689 690 691,https://en.wikipedia.org:443/wiki/2023_Big_Ten_Conference_football_season:5433 5434 5435 5436,https://www.nfl.com:443/teams/seattle-seahawks/:659 660,https://www.nfl.com:443/standings/conference/2023/REG:705 706 707 708,https://www.nfl.com:443/teams/philadelphia-eagles/:669 670,https://bolavip.com:443/en:811 812,https://en.wikipedia.org:443/wiki/New_England_Patriots:12286 12287 12288 12289 12290 12291 12292 12293 12294 12295 12296 12297 12298 12299 12300 12301 12302 12303 12304 12305 12306 12307 12308 12309 12310 12311 12312 12313 12314 12315 12316 12317 12318 12319 12320 12321 12322 12323 12324 12325,https://www.nfl.com:443/teams/indianapolis-colts/:665 666,https://www.nfl.com:443/standings/:786 787 788 789,https://www.nfl.com:443/teams/baltimore-ravens/:665 666 667,https://www.patriots.com:443/news/ben-coates-elected-to-patriots-hall-of-fame-140866:1516 1517 1518 1519 1520,https://www.sbnation.com:443/2014/10/5/6916597/nba-new-tv-deal-espn-turner-24-billion:692,https://en.wikipedia.org:443/wiki/National_Football_League:6861 6862 6863 6864 6865,https://en.wikipedia.org:443/wiki/Sports_in_the_United_States:4872,https://en.wikipedia.org:443/wiki/Fenway_Park:9144 9145 9146 9147 9148 