steel steel-0 3615 https://en.wikipedia.org:443/wiki/Columbia_(personification):2560,https://www.nytimes.com:443/2023/11/29/business/dealbook/kamala-harris-biden-voters.html:601,https://www.usatoday.com:443/news/nation/:291,https://en.wikipedia.org:443/wiki/Race_and_maternal_health_in_the_United_States:3618 3619,https://www.nytimes.com:443/2024/05/02/arts/design/petrit-halilaj-kosovo-met-roof.html:1004,https://www.nytimes.com:443/books/best-sellers/mass-market-monthly/:594,https://en.wikipedia.org:443/wiki/2023_Big_Ten_Conference_football_season:5431 5432,https://en.wikipedia.org:443/wiki/Vietnam_War:16555,https://en.wikipedia.org:443/wiki/Drug_Enforcement_Administration:6073,https://en.wikipedia.org:443/wiki/Sports_in_El_Salvador:3223,https://en.wikipedia.org:443/wiki/Housing_in_the_United_States:1506,https://www.nytimes.com:443/section/science?page=9:2120 2121,https://en.wikipedia.org:443/wiki/Supreme_Court_of_the_United_States:15341 15342,https://en.wikipedia.org:443/wiki/Sports_in_India:15251,https://en.wikipedia.org:443/wiki/Agriculture_in_the_United_States:5189 5190 5191,https://en.wikipedia.org:443/wiki/The_Washington_Post:6440 6441,https://www.nytimes.com:443/2024/04/18/t-magazine/chalet-des-iles-paris-restaurant.html:1130 1131 1132 1133,https://www.azcentral.com:443/story/sports/nfl/cardinals/2015/09/06/nfls-dynasties-decade/71605710/:688,https://www.nytimes.com:443/news-event/2024-election:465 466,https://en.wikipedia.org:443/wiki/List_of_current_United_States_district_judges:10423 10424,https://en.wikipedia.org:443/wiki/Indiana:9729 9730 9731 9732 9733 9734 9735 9736 9737,https://en.wikipedia.org:443/wiki/American_Revolution:15153,https://www.nytimes.com:443/section/business:458 459,https://en.wikipedia.org:443/wiki/MLB_Network:4508,https://www.nytimes.com:443/section/todayspaper:416,https://en.wikipedia.org:443/wiki/History_of_the_United_States_(1945%E2%80%931964):7916,https://en.wikipedia.org:443/wiki/Powers_of_the_president_of_the_United_States:3155 3156,https://en.wikipedia.org:443/wiki/Literacy_in_the_United_States:5669,https://en.wikipedia.org:443/wiki/Soccer_in_the_United_States:8867 8868,https://en.wikipedia.org:443/wiki/War_in_Afghanistan_(2001%E2%80%932021):17732,https://en.wikipedia.org:443/wiki/Timeline_of_United_States_inventions_(after_1991):2660 2661,https://en.wikipedia.org:443/wiki/Fenway_Park:9142 9143,https://en.wikipedia.org:443/wiki/Bodybuilding_in_the_United_States:1003 1004,https://en.wikipedia.org:443/wiki/History_of_the_United_States_(1849%E2%80%931865):5335,https://en.wikipedia.org:443/wiki/American_exceptionalism:5782,https://en.wikipedia.org:443/wiki/List_of_mountains_of_the_United_States:9923,https://en.wikipedia.org:443/wiki/IndyCar_Series:6957 6958 6959 6960 6961,https://en.wikipedia.org:443/wiki/Spanish%E2%80%93American_War:14006 14007 14008,https://www.nytimes.com:443/2024/04/14/fashion/vintage-watches-reissued.html:742 743 744 745,https://www.nytimes.com:443/wirecutter/:2813,https://www.nytimes.com:443/2024/05/02/us/blast-mortar-brain-injury-military.html:1177,https://en.wikipedia.org:443/wiki/Speaker_of_the_United_States_House_of_Representatives:5266,https://en.wikipedia.org:443/wiki/Southern_United_States:11492,https://www.nytimes.com:443/section/fashion?page=9:2126,https://en.wikipedia.org:443/wiki/Iroquois:13664 13665,https://en.wikipedia.org:443/wiki/International_rankings_of_the_United_States:1554,https://en.wikipedia.org:443/wiki/United_States_dollar:7312,https://en.wikipedia.org:443/wiki/Architecture_of_the_United_States:5337 5338 5339,https://en.wikipedia.org:443/wiki/United_States_Declaration_of_Independence:10056 