step step-0 10404 https://en.wikipedia.org:443/wiki/U.S._state:5187,https://www.nytimes.com:443/section/corrections?page=5:932,https://wtop.com:443/virginia/2020/01/virginia-becomes-38th-state-to-ratify-equal-rights-amendment-but-it-may-be-too-late/:690,https://en.wikipedia.org:443/wiki/Wikipedia:File_upload_wizard:1727 1728 1729,https://www.nytimes.com:443/2024/04/17/opinion/venezuela-oil-sanctions.html:647,https://en.wikipedia.org:443/wiki/MLB_Network:4514,https://www.nytimes.com:443/2024/04/24/podcasts/laufey-gen-zs-jazz-icon-sings-for-anxious-generation.html:1763 1764 1765,https://www.tlc.com:443/weddings/top-trends-for-spring-wedding-2024:654 655,https://www.businessinsider.com:443/real-estate:1188 1189,https://www.nytimes.com:443/video/us/100000007348445/breonna-taylor-death-cops.html:966 967,https://www.nytimes.com:443/2024/05/04/business/energy-environment/tesla-electric-vehicles-supercharger.html:931,https://www.law.cornell.edu:443/supremecourt/text/74/700:4706 4707,https://www.cookingchanneltv.com:443/recipes/tia-mowry/spaghetti-and-turkey-meatballs-2803024:786 787,https://www.nytimes.com:443/interactive/2024/05/03/opinion/global-billionaires-tax.html:802,https://www.nytimes.com:443/section/t-magazine:935,https://www.nytimes.com:443/section/science?page=9:2122,https://en.wikipedia.org:443/wiki/Architecture_of_the_United_States:5343,https://en.wikipedia.org:443/wiki/Sergeant_at_Arms_of_the_United_States_Senate:2061,https://www.nytimes.com:443/2019/06/19/us/newsom-native-american-apology.html:750,https://en.wikipedia.org:443/wiki/Sports_in_South_Carolina:1721,https://www.usatoday.com:443/story/news/politics/2022/08/04/krysten-sinema-inflation-reduction-act-senator-democrats-vote/10234906002/:447,https://www.nytimes.com:443/2024/04/01/fashion/craft-handmade-umbrella-italy.html:817 818 819,https://www.nytimes.com:443/section/well:482,https://www.azcentral.com:443/story/sports/nfl/cardinals/2015/09/06/nfls-dynasties-decade/71605710/:692,https://en.wikipedia.org:443/wiki/NBA:6786,https://www.nytimes.com:443/2024/05/03/arts/design/stanley-stellar-frieze-photography.html:765 766,https://en.wikipedia.org:443/wiki/New_England:9230,https://en.wikipedia.org:443/wiki/Arkansas_River:2355,https://en.wikipedia.org:443/wiki/Boston_Red_Sox:11036 11037,https://en.wikipedia.org:443/wiki/The_Washington_Post:6444 6448 6449 6450 6451,https://www.nytimes.com:443/section/health?page=7:1699 1703,https://en.wikipedia.org:443/wiki/College_athletics_in_the_United_States:4723,https://www.sportsbusinessjournal.com:443/Journal/Issues/2024/03/04.aspx:950,https://en.wikipedia.org:443/wiki/Perpetual_Union:3183,https://www.nytimes.com:443/2013/01/12/opinion/is-this-the-afghan-wars-last-chapter.html?_r=3&amp;:370 371,https://en.wikipedia.org:443/wiki/Fox_Sports_1:4760,https://en.wikipedia.org:443/wiki/Great_Recession_in_the_United_States:4992 4993,https://www.telegraph.co.uk:443/news/worldnews/asia/afghanistan/8693247/Secret-peace-talks-between-US-and-Taliban-collapse-over-leaks.html:578 579 580,https://en.wikipedia.org:443/wiki/Sports_in_India:15256 15257 15259 15260,https://www.ft.com:443/content/03cc24ca-dc69-4bd6-8f2d-7509b0f6b6f1:1158 1159,https://www.nytimes.com:443/2024/05/03/opinion/campus-protests-israel-gaza.html:2072,https://en.wikipedia.org:443/wiki/Ice_hockey:7215,https://www.nytimes.com:443/2024/05/04/nyregion/columbia-protests-arrest-agitators-israel.html:1131,https://www.nytimes.com:443/2024/04/22/us/politics/israel-gaza-hamas-war.html:1465 1466,https://www.nytimes.com:443/2024/05/04/opinion/fat-activist-freedom-health.html:749,https://www.sportsbusinessjournal.com:443/Journal/Issues/2012/04/02/Media/Fox-channel.aspx:1150,https://en.wikipedia.org:443/wiki/Terrorism_in_the_United_States:11153,https://en.wikipedia.org:443/wiki/Spanish%E2%80%93American_War:14009 14010,https://cooking.nytimes.com:443/recipes/1024760-chocolate-layer-cake:2117 2118 2119 2120 2121 2122 2123 2124 2125 2126 2127 2128,https://www.nytimes.com:443/column/out-there:286,https://en.wikipedia.org:443/wiki/United_States_Declaration_of_Independence:10057 10058 10071,https://www.tlc.com:443/:390 391 392,https://en.wikipedia.org:443/wiki/Democratic_Party_(United_States):12576,https://www.nytimes.com:443/interactive/2021/07/07/opinion/minimum-corporate-tax.html:595,https://www.nytimes.com:443/:819,https://www.nytimes.com:443/2024/05/01/magazine/catholic-cousin-annulment-ethics.html:638,https://www.nytimes.com:443/books/best-sellers/:1469 1470,https://en.wikipedia.org:443/wiki/Cold_War:18953 18954 18959,https://cooking.nytimes.com:443/recipes/1018626-eggs-benedict:1889 1890 1891 1892 1893 1894 1895,https://en.wikipedia.org:443/wiki/Supreme_Court_of_the_United_States:15345 15346 15347 15357,https://en.wikipedia.org:443/wiki/Race_and_maternal_health_in_the_United_States:3621,https://www.nytimes.com:443/2024/05/03/opinion/us-africa-niger-chad.html:653,https://www.nytimes.com:443/2024/05/03/climate/nasa-satellites-data.html:889,https://www.nytimes.com:443/international/:682,https://archive.curbed.com:443/2020/1/13/21026108/public-housing-faircloth-amendment-election-2020:1006,https://www.nytimes.com:443/section/fashion:1000,https://www.tlc.com:443/shows/90-day-fiance-happily-ever-after/photo-galleries/90-day-fiance-happily-ever-after-couples-bios-season-8:788 789,https://en.wikipedia.org:443/wiki/Snowboarding:4052 4053,https://www.nytimes.com:443/2024/05/03/style/modern-love-we-didnt-know-it-was-the-last-time.html:659,https://www.usatoday.com:443/story/sports/mlb/2013/08/11/fox-sports-1-versus-espn/2641247/:874 875 876,https://www.nytimes.com:443/2023/04/14/us/politics/mike-pompeo-president-2024.html:538,https://www.nytimes.com:443/section/arts/television?page=3:710,https://en.wikipedia.org:443/wiki/USA_Cricket:1729,https://en.wikipedia.org:443/wiki/MLS:10216,https://www.wired.com:443/2016/08/olympic-cities-everywhere/:734,https://www.nytimes.com:443/live/2024/05/04/us/college-campus-protests:2744 2745,https://www.theguardian.com:443/info/privacy:215,https://en.wikipedia.org:443/wiki/Drug_Enforcement_Administration:6077 6078 6079,https://www.nytimes.com:443/section/health:668,https://www.businessinsider.com:443/a-timeline-of-trumps-efforts-to-overturn-the-2020-election-2021-10:922,https://en.wikipedia.org:443/wiki/Soccer_in_the_United_States:8874,https://www.nytimes.com:443/section/fashion?page=9:2129 2130 2131,https://en.wikipedia.org:443/wiki/United_States_federal_civil_service:2398 2399,https://www.nytimes.com:443/2024/05/02/arts/music/tiktok-universal-music-deal.html:537,https://en.wikipedia.org:443/wiki/Sports_teams_in_Virginia:1101,https://en.wikipedia.org:443/wiki/Rugby_union_at_the_Summer_Olympics:1968 1969,https://en.wikipedia.org:443/wiki/Olympic_Games:11208 11210 11211,https://www.gallup.com:443/394505/indicator-life-evaluation-index.aspx:888 889,https://www.saturdaydownsouth.com:443/sports/ranking-top-25-rivalries-college-sports-2023/:1586,https://en.wikipedia.org:443/wiki/American_Revolution:15154 15155,https://www.indycar.com:443/news/2022/02/02-22-internationaltv:544,https://www.nytimes.com:443/ca/:687,https://www.nytimes.com:443/section/theater:485,https://en.wikipedia.org:443/wiki/Prescription_drug_prices_in_the_United_States:5899 5900 5903 5904,https://cooking.nytimes.com:443/recipes/1023559-ina-gartens-bourbon-chocolate-pecan-pie:1722 1723 1724 1725,https://cooking.nytimes.com:443/recipes/1022283-country-panzanella-with-watermelon-dressing:1785 1786 1787 1788,https://www.sportsbusinessjournal.com:443/Articles/2023/10/23/mls-sets-attendance-record-for-season:770,https://en.wikipedia.org:443/wiki/Indiana:9739,https://cooking.nytimes.com:443/recipes/1025421-creole-broiled-shrimp-and-baby-corn:1220 1221 1222 1223,https://www.nytimes.com:443/section/arts/design:400,https://en.wikipedia.org:443/wiki/Henley_Royal_Regatta:3542,https://www.nytimes.com:443/live/2024/01/19/world/israel-hamas-news/a-un-official-says-israeli-treatment-of-detainees-may-amount-to-torture?smid=url-share:3256,https://en.wikipedia.org:443/wiki/Volleyball:4788 4789 4790 4791 4792,https://en.wikipedia.org:443/wiki/Maternal_mortality_in_the_United_States:4571 4572,https://en.wikipedia.org:443/wiki/Baseball:9194 9197 9198 9199,https://en.wikipedia.org:443/wiki/Constitution_of_the_United_States:12445 12451,https://cooking.nytimes.com:443/recipes/1019333-millionaires-shortbread:1782 1783 1784 1785,https://en.wikipedia.org:443/wiki/History_of_the_United_States_(1945%E2%80%931964):7919 7924 7925,https://www.businessinsider.com:443/personal-finance/mortgages:664,https://en.wikipedia.org:443/wiki/U.S._Immigration_and_Customs_Enforcement:5976,https://www.nytimes.com:443/2024/04/27/us/politics/trump-trial-fact-check.html:745,https://cooking.nytimes.com:443/recipes/1024469-tomato-cheddar-toasts:1600 1601,https://www.nytimes.com:443/section/science:683,https://www.nytimes.com:443/section/magazine?page=8:1357,https://en.wikipedia.org:443/wiki/Tribal_sovereignty_in_the_United_States:4229,https://en.wikipedia.org:443/wiki/Inter_Miami:7348,https://www.tlc.com:443/inside-tlc/TLC-Casting:1066 1067 1068 1069,https://www.sportsbusinessjournal.com:443/Daily/Issues/2024/04/29.aspx:876,https://cooking.nytimes.com:443/recipes/1013611-rhubarb-upside-down-cake:1892 1893 1894 1895 1896 1897 1898,https://en.wikipedia.org:443/wiki/USA_Cycling:1289,https://www.nytimes.com:443/2024/05/01/us/free-speech-campus-protests.html:781,https://www.nytimes.com:443/wirecutter/:2814,https://en.wikipedia.org:443/wiki/National_Boxing_Association:2669,https://www.nytimes.com:443/2024/05/04/world/europe/russia-soldiers-women.html:1078,https://www.tlc.com:443/parenting/are-men-or-women-more-likely-to-want-kids-study:645 646,https://www.nytimes.com:443/interactive/2024/05/03/us/ucla-protests-encampment-violence.html:953 954,https://en.wikipedia.org:443/wiki/War_in_Afghanistan_(2001%E2%80%932021):17734 17735 17736 17737 17738 17743 17744 17745,https://www.sportsbusinessjournal.com:443/Archive/Sections/International.aspx:952,https://en.wikipedia.org:443/wiki/History_of_the_United_States_(2008%E2%80%93present):10689 10691 10692,https://www.nytimes.com:443/2024/05/02/style/central-park-hat-luncheon.html:749 751,https://cooking.nytimes.com:443/about-us:814 815,https://en.wikipedia.org:443/wiki/USA_Baseball:5610,https://en.wikipedia.org:443/wiki/Culture_of_the_United_States:10528,https://cooking.nytimes.com:443/recipes/1016295-mint-julep:1698 1699 