straight straight-0 3610 https://en.wikipedia.org:443/wiki/Horse_racing_in_the_United_States:1557,https://en.wikipedia.org:443/wiki/Beach_volleyball:4482,https://en.wikipedia.org:443/wiki/Jack_Nicklaus:8478 8479 8480 8481 8482,https://en.wikipedia.org:443/wiki/Sports_in_Kentucky:4291,https://cooking.nytimes.com:443/recipes/1024760-chocolate-layer-cake:2133,https://en.wikipedia.org:443/wiki/Sports_in_Uruguay:992,https://cooking.nytimes.com:443/recipes/1022283-country-panzanella-with-watermelon-dressing:1796 1797,https://www.nytimes.com:443/2024/04/12/fashion/weddings/elena-bauer-joshua-fagel-wedding.html:655,https://en.wikipedia.org:443/wiki/Professional_boxer:1949,https://en.wikipedia.org:443/wiki/Carlos_Bocanegra:2649,https://cooking.nytimes.com:443/recipes/1013611-rhubarb-upside-down-cake:1914,https://en.wikipedia.org:443/wiki/Sports_in_Washington:4306 4307 4308 4309,https://cooking.nytimes.com:443/recipes/1018626-eggs-benedict:1907 1908,https://en.wikipedia.org:443/wiki/Sports_in_American_Samoa:1307,https://en.wikipedia.org:443/wiki/Henley_Royal_Regatta:3591 3592 3593 3594 3595 3596 3597 3598 3599,https://news.gallup.com:443/poll/224864/football-americans-favorite-sport-watch.aspx:1003,https://www.theguardian.com:443/us-news/2020/aug/25/qanon-conspiracy-theory-explained-trump-what-is:1035 1036,https://en.wikipedia.org:443/wiki/Sports_in_Brunei:2028,https://cooking.nytimes.com:443/recipes/1019333-millionaires-shortbread:1797 1798,https://cooking.nytimes.com:443/topics/our-best-pasta-recipes:744,https://cooking.nytimes.com:443/recipes/1025421-creole-broiled-shrimp-and-baby-corn:1234,https://en.wikipedia.org:443/wiki/Baseball:9233,https://en.wikipedia.org:443/wiki/Iroquois:13702 13703,https://www.theguardian.com:443/sport/nhl:634,https://www.nytimes.com:443/2024/05/02/business/horse-racing-deaths-kentucky-derby.html:1271,https://www.nytimes.com:443/2024/05/04/nyregion/columbia-protests-arrest-agitators-israel.html:1138,https://www.azcentral.com:443/story/sports/nfl/cardinals/2015/09/06/nfls-dynasties-decade/71605710/:694 695,https://en.wikipedia.org:443/wiki/MLS:10234,https://en.wikipedia.org:443/wiki/Volleyball:4800 4801 4802 4803 4804 4805,https://cooking.nytimes.com:443/recipes/1023559-ina-gartens-bourbon-chocolate-pecan-pie:1736,https://cooking.nytimes.com:443/about-us:819,https://en.wikipedia.org:443/wiki/History_of_the_United_States_(1945%E2%80%931964):7949,https://cooking.nytimes.com:443/recipes/1024469-tomato-cheddar-toasts:1610 1611,https://www.nytimes.com:443/2024/05/03/arts/design/stanley-stellar-frieze-photography.html:769,https://en.wikipedia.org:443/wiki/United_States_men%27s_national_soccer_team:8106 8107 8108 8109,https://cooking.nytimes.com:443/:3676,https://en.wikipedia.org:443/wiki/Fenway_Park:9178,https://en.wikipedia.org:443/wiki/College_basketball:5609 5610 5611,https://en.wikipedia.org:443/wiki/U.S._state:5190,https://cooking.nytimes.com:443/recipes/1016295-mint-julep:1705,https://en.wikipedia.org:443/wiki/USA_Baseball:5615 5616,https://en.wikipedia.org:443/wiki/Boston_Red_Sox:11073 11074 11075 11076 11077,https://www.usatoday.com:443/story/sports/mlb/2013/08/11/fox-sports-1-versus-espn/2641247/:877,https://cooking.nytimes.com:443/christmas:1592,https://en.wikipedia.org:443/wiki/Indiana:9759,https://en.wikipedia.org:443/wiki/NBA:6824 6825 6826,https://en.wikipedia.org:443/wiki/Olympic_Games:11232,https://en.wikipedia.org:443/wiki/Snowboarding:4070,https://en.wikipedia.org:443/wiki/Sports_in_India:15276,https://en.wikipedia.org:443/wiki/Sports_in_Syria:1665,https://www.nytimes.com:443/2024/05/02/us/blast-mortar-brain-injury-military.html:1185 1186 