stretch stretch-0 2218 https://www.nytimes.com:443/2024/05/03/climate/nasa-satellites-data.html:896,https://en.wikipedia.org:443/wiki/Arkansas_River:2364,https://www.nytimes.com:443/live/2024/05/02/us/biden-trump-campaign:2287,https://en.wikipedia.org:443/wiki/United_States_men%27s_national_soccer_team:8121,https://en.wikipedia.org:443/wiki/Fenway_Park:9220,https://www.nytimes.com:443/section/science?page=9:2133,https://www.azcentral.com:443/story/sports/nfl/cardinals/2015/09/06/nfls-dynasties-decade/71605710/:696,https://en.wikipedia.org:443/wiki/Architecture_of_the_United_States:5375,https://en.wikipedia.org:443/wiki/Colonial_history_of_the_United_States:12474 12475,https://en.wikipedia.org:443/wiki/Boston:12231,https://www.nytimes.com:443/spotlight/graphics?page=10:2091 2092,https://en.wikipedia.org:443/wiki/Cold_War:19042,https://en.wikipedia.org:443/wiki/Red_River_of_the_South:2078,https://www.nytimes.com:443/2005/09/18/opinion/conventional-wisdom.html:511,https://www.nytimes.com:443/live/2024/05/03/world/israel-gaza-war-hamas:1591,https://en.wikipedia.org:443/wiki/War_in_Afghanistan_(2001%E2%80%932021):17826,https://www.bbc.co.uk:443/news/world-us-canada-55358342:494,https://www.nytimes.com:443/2023/09/07/climate/climate-forward-event.html:506,https://www.nytimes.com:443/section/health?page=7:1710,https://en.wikipedia.org:443/wiki/History_of_the_United_States_(1945%E2%80%931964):7961,https://en.wikipedia.org:443/wiki/Sports_in_Washington:4316,https://www.nytimes.com:443/2024/05/04/world/europe/uk-rishi-sunak-conservatives-elections.html:891,https://www.saturdaydownsouth.com:443/sports/ranking-top-25-rivalries-college-sports-2023/:1598 1599,https://www.usatoday.com:443/news/nation/:292 293,https://en.wikipedia.org:443/wiki/Boston_Red_Sox:11087,https://www.nytimes.com:443/2024/05/02/business/horse-racing-deaths-kentucky-derby.html:1274,https://www.nytimes.com:443/2024/04/14/fashion/vintage-watches-reissued.html:752 753,https://en.wikipedia.org:443/wiki/MLS:10246,https://en.wikipedia.org:443/wiki/Sports_in_Armenia:2408,https://www.nytimes.com:443/2024/05/04/opinion/fat-activist-freedom-health.html:754,https://en.wikipedia.org:443/wiki/Baseball:9251,https://en.wikipedia.org:443/wiki/Snowboarding:4075 