strip strip-0 3247 https://www.nytimes.com:443/section/science?page=9:2134,https://www.theguardian.com:443/sport/2017/aug/19/will-mcgregor-v-mayweather-save-american-boxing-or-bury-it?CMP=share_btn_link:1379 1380,https://en.wikipedia.org:443/wiki/Portal:Current_events:2759 2760,https://en.wikipedia.org:443/wiki/United_States_dollar:7341 7342 7343,https://www.nytimes.com:443/interactive/2024/05/03/us/ucla-protests-encampment-violence.html:963 964,https://www.nytimes.com:443/2024/04/02/world/middleeast/gaza-al-shifa-hospital.html:1082 1083 1084,https://en.wikipedia.org:443/wiki/Constitution_of_the_United_States:12477,https://www.azcentral.com:443/story/sports/nfl/cardinals/2015/09/06/nfls-dynasties-decade/71605710/:697,https://www.nytimes.com:443/news-event/israel-hamas-gaza:632,https://en.wikipedia.org:443/wiki/United_States_Attorney:1934,https://www.nytimes.com:443/2024/04/22/us/politics/israel-gaza-hamas-war.html:1478 1479 1480,https://en.wikipedia.org:443/wiki/Iroquois:13723 13724 13725,https://en.wikipedia.org:443/wiki/New_England_Patriots:12402 12403,https://www.nytimes.com:443/2024/04/24/us/palestinian-family-gaza-war-death.html:1487 1488,https://www.nytimes.com:443/spotlight/graphics?page=10:2097 2098,https://www.nytimes.com:443/2021/07/07/style/how-the-french-manicure-made-its-comeback.html:659,https://www.nytimes.com:443/interactive/2024/02/01/magazine/israel-founding-palestinian-conflict.html:1515 1516 1517,https://en.wikipedia.org:443/wiki/Cold_War:19047,https://en.wikipedia.org:443/wiki/Southern_United_States:11528,https://en.wikipedia.org:443/wiki/Olympic_Games:11242 11243 11244 11245,https://www.nytimes.com:443/section/learning:485,https://en.wikipedia.org:443/wiki/Speaker_of_the_United_States_House_of_Representatives:5274 5275,https://en.wikipedia.org:443/wiki/United_States_federal_civil_service:2408,https://www.nytimes.com:443/section/health?page=7:1711,https://en.wikipedia.org:443/wiki/Terrorism_in_the_United_States:11215,https://en.wikipedia.org:443/wiki/History_of_the_United_States_(2008%E2%80%93present):10751 10752,https://www.cnn.com:443/2020/09/26/politics/supreme-court-conservative/index.html:1260,https://en.wikipedia.org:443/wiki/National_Boxing_Association:2673 2674 2675 2676 2677 2678 2679,https://www.nytimes.com:443/section/books/review?page=7:1412,https://en.wikipedia.org:443/wiki/New_England:9255,https://en.wikipedia.org:443/wiki/Culture_of_the_United_States:10567,https://www.nytimes.com:443/live/2024/05/03/world/israel-gaza-war-hamas:1594 1595 1596 1597,https://www.nytimes.com:443/live/2024/05/04/world/israel-gaza-war-hamas:1586 1587 1588 1589 1590 1591 1592,https://cooking.nytimes.com:443/recipes/1024760-chocolate-layer-cake:2136 2137 2138 2139 2140 2141,https://en.wikipedia.org:443/wiki/National_Football_League:6895,https://www.nytimes.com:443/live/2024/01/19/world/israel-hamas-news/a-un-official-says-israeli-treatment-of-detainees-may-amount-to-torture?smid=url-share:3297 3298 3299 3300 3301 3302 3303 3304,https://www.nytimes.com:443/2024/05/04/world/middleeast/cindy-mccain-gaza-famine.html:571 572 573 574,https://www.nytimes.com:443/spotlight/graphics:527,https://en.wikipedia.org:443/wiki/Sports_in_Arizona:1197,https://en.wikipedia.org:443/wiki/Summer_Olympic_Games:5360 5361 