strongest strongest-0 1925 https://en.wikipedia.org:443/wiki/Southern_United_States:11541,https://en.wikipedia.org:443/wiki/Sports_in_Poland:2604 2605 2606,https://www.nytimes.com:443/section/technology:441,https://www.azcentral.com:443/story/sports/nfl/cardinals/2015/09/06/nfls-dynasties-decade/71605710/:698,https://en.wikipedia.org:443/wiki/New_England:9263 9264 9265,https://www.nytimes.com:443/spotlight/nytimesineducation:1051,https://en.wikipedia.org:443/wiki/Culture_of_the_United_States:10576,https://en.wikipedia.org:443/wiki/Sports_in_Finland:2918,https://en.wikipedia.org:443/wiki/Boston:12237,https://en.wikipedia.org:443/wiki/Iroquois:13732 13733,https://en.wikipedia.org:443/wiki/College_basketball:5617,https://www.nytimes.com:443/2024/05/04/nyregion/trump-trial-scandals-testimony.html:1169 1170,https://en.wikipedia.org:443/wiki/Baseball:9286,https://www.nytimes.com:443/spotlight/visual-investigations:1485,https://www.nytimes.com:443/video/op-docs:289,https://en.wikipedia.org:443/wiki/Sports_in_Washington:4318,https://en.wikipedia.org:443/wiki/Democratic_Party_(United_States):12632 12633 12634,https://en.wikipedia.org:443/wiki/Indiana:9773 9774,https://www.purdue.edu:443/newsroom/releases/2016/Q3/purdue-university-sets-records-for-largest-enrollment-and-highest-graduation-rates-ever.html:441,https://spoiler.bolavip.com:443/en/celebrities/ryan-gosling-net-worth:512,https://en.wikipedia.org:443/wiki/Sports_in_Cuba:1206 1207,https://en.wikipedia.org:443/wiki/History_of_the_United_States_(2008%E2%80%93present):10757,https://www.forbes.com:443/sites/greatspeculations/2019/09/22/a-strange-new-world-economic-slowdown-liquidity-issues/:765,https://www.nytimes.com:443/2024/05/02/us/blast-mortar-brain-injury-military.html:1191,https://en.wikipedia.org:443/wiki/Ice_hockey:7307,https://en.wikipedia.org:443/wiki/Sports_in_El_Salvador:3233,https://www.nytimes.com:443/2014/11/11/technology/obama-net-neutrality-fcc.html:751 752 