studi studi-0 13106 https://en.wikipedia.org:443/wiki/Jack_Nicklaus:8546 8547 8548,https://en.wikipedia.org:443/wiki/Sports_in_Brunei:2030,https://www.nytimes.com:443/2024/05/01/us/free-speech-campus-protests.html:792,https://en.wikipedia.org:443/wiki/Bureau_of_Diplomatic_Security:4376,https://archive.curbed.com:443/2020/1/13/21026108/public-housing-faircloth-amendment-election-2020:1015 1016,https://en.wikipedia.org:443/wiki/Olympic_Games:11260 11261 11262 11263 11264 11265 11266 11267 11268 11269 11270,https://www.theguardian.com:443/world/2001/oct/27/afghanistan.terrorism6:569,https://www.theguardian.com:443/us-news/2020/aug/25/qanon-conspiracy-theory-explained-trump-what-is:1039 1040,https://www.azcentral.com:443/story/sports/nfl/cardinals/2015/09/06/nfls-dynasties-decade/71605710/:699,https://www.businessinsider.com:443/real-estate:1203,https://en.wikipedia.org:443/wiki/Cold_War:19083 19084 19085 19086 19087 19088 19089 19090 19091 19092 19093 19094 19095 19096 19097 19098 19099,https://www.cnn.com:443/2020/09/26/politics/supreme-court-conservative/index.html:1262,https://en.wikipedia.org:443/wiki/Great_Recession_in_the_United_States:5045 5046,https://en.wikipedia.org:443/wiki/Antisemitism_in_the_United_States:4212 4213 4214 4215 4216 4217 4218 4219 4220 4221 4222 4223 4224 4225 4226 4227 4228 4229 4230 4231 4232,https://arxiv.org:443/abs/1607.04484:397 398 399 400 401 402 403 404,https://www.themarshallproject.org:443/2022/06/14/what-did-fbi-data-say-about-crime-in-2021-it-s-too-unreliable-to-tell:1034,https://en.wikipedia.org:443/wiki/New_England_Patriots:12426,https://nytlicensing.com:443/magazines/:1020 1021,https://www.nytimes.com:443/section/travel:581,https://en.wikipedia.org:443/wiki/Supreme_Court_of_the_United_States:15437 15438 15439 15440 15441 15442 15443 15444,https://www.nytimes.com:443/2024/04/17/opinion/venezuela-oil-sanctions.html:654,https://bolavip.com:443/en/info/privacy:721,https://en.wikipedia.org:443/wiki/International_rankings_of_the_United_States:1567 1568,https://en.wikipedia.org:443/wiki/MLS:10269,https://en.wikipedia.org:443/wiki/History_of_the_United_States_(1945%E2%80%931964):7987 7991,https://en.wikipedia.org:443/wiki/Culture_of_the_United_States:10593 10594 10595 10596 10597 10598 10599 10602 10603 10604 10605 10606 10607,https://en.wikipedia.org:443/wiki/Terrorism_in_the_United_States:11230 11231 11232 11233 11234 11235 11236 11237 11238 11239,https://www.nytimes.com:443/2024/04/29/realestate/renters-astoria-queens.html:731,https://en.wikipedia.org:443/wiki/Professional_boxer:1955,https://en.wikipedia.org:443/wiki/Agriculture_in_the_United_States:5212 5213 5214 5215 5216 5217 5218 5219 5220,https://en.wikipedia.org:443/wiki/Iroquois:13742 13743 13744 13745 13746 13747 13748,https://en.wikipedia.org:443/wiki/Sports_in_Ghana:2372 2373 2374,https://www.nytimes.com:443/section/well:485,https://en.wikipedia.org:443/wiki/College_athletics_in_the_United_States:4817 4818 4819 4820 4821,https://en.wikipedia.org:443/wiki/Democratic_Party_(United_States):12652 12653 12654 12655 12656 12657 12658 12659,https://www.nytimes.com:443/interactive/2024/02/01/magazine/israel-founding-palestinian-conflict.html:1520 1521 1522 1523 1524 1525 1526 1528,https://www.nytimes.com:443/2024/05/03/books/cj-sansom-dead.html:748,https://en.wikipedia.org:443/wiki/Summer_Olympic_Games:5370 5371 5372,https://en.wikipedia.org:443/wiki/Prescription_drug_prices_in_the_United_States:5929 5930 5931 5932 5933 5934 5935 5936 5937 5938 5939 5940 5941 5942 5943 5944 5945 5946 5947,https://en.wikipedia.org:443/wiki/National_Football_League:6899,https://en.wikipedia.org:443/wiki/Environmental_issues_in_the_United_States:3747 3748 3749 3750 3751 3752 3753 3754 3755 3756,https://en.wikipedia.org:443/wiki/Powers_of_the_president_of_the_United_States:3172 3173 3174,https://en.wikipedia.org:443/wiki/Baseball:9292,https://en.wikipedia.org:443/wiki/Sports_in_Yemen:1096,https://en.wikipedia.org:443/wiki/National_monument_(United_States):1608 1609,https://www.nytimes.com:443/column/out-there:288 290,https://en.wikipedia.org:443/wiki/Speaker_of_the_United_States_House_of_Representatives:5278,https://www.nytimes.com:443/spotlight/nytimesineducation:1060 1061 1062 1063 1064,https://en.wikipedia.org:443/wiki/Sports_in_the_United_States:4891 4892,https://www.nytimes.com:443/section/opinion?page=5:870,https://en.wikipedia.org:443/wiki/Maternal_mortality_in_the_United_States:4577 4578 4579 4580 4581 4582 4583 4584 4585 4586 4587 4588 4589 4590 4591 4592 4593,https://www.nytimes.com:443/live/2024/05/04/us/college-campus-protests:2843 2844 2845 2847,https://www.nytimes.com:443/section/science:688 690 691 692 693,https://en.wikipedia.org:443/wiki/Sports_in_Kentucky:4301 4303 4304,https://en.wikipedia.org:443/wiki/American_Sign_Language:6375 6376 6377 6378 6379 6380 6381 6382 6383 6384 6385 6386 6387 6388,https://www.nytimes.com:443/spotlight/podcasts:1852,https://www.nytimes.com:443/series/opinion-audio:318,https://en.wikipedia.org:443/wiki/Consolidated_city-county:3156 3157 3158 3159,https://en.wikipedia.org:443/wiki/Fashion_in_the_United_States:1807,https://www.tlc.com:443/parenting/are-men-or-women-more-likely-to-want-kids-study:651 652 653 654 655 656 657 658 659 660 661 662 663 664 665 666 667 668 669,https://www.nytimes.com:443/section/learning:504 505,https://en.wikipedia.org:443/wiki/Town_meeting:2675 2676 2677 2678,https://www.nytimes.com:443/by/pamela-paul:367,https://en.wikipedia.org:443/wiki/Americans:8027 8028 8029 8030 8031,https://en.wikipedia.org:443/wiki/Drug_Enforcement_Administration:6111 6112 6113,https://en.wikipedia.org:443/wiki/Beach_volleyball:4493 4494,https://www.nytimes.com:443/2024/04/20/health/seniors-home-equity-mortgages.html:792,https://en.wikipedia.org:443/wiki/Literacy_in_the_United_States:5760 5761 5762 5763 5764 5765 5766 5767 5768 5769 5770 5771 5772 5773 5774 5775 5776 5777 5778 5779 5780 5781 5782 5783 5784 5785 5786 5787 5788 5789 5790 5791 5792 5793 5794 5795 5796 5797 5798 5799 5800 5801 5802,https://www.nytimes.com:443/section/obituaries:634,https://en.wikipedia.org:443/wiki/Housing_in_the_United_States:1517 1518,https://en.wikipedia.org:443/wiki/NBA:6843,https://www.nytimes.com:443/section/health:673 674 676,http://www.oklegislature.gov:80/osStatuesTitle.aspx:95 96,https://en.wikipedia.org:443/wiki/Colonial_history_of_the_United_States:12502 12503 12504 12505 12506 12507 12508,https://en.wikipedia.org:443/wiki/U.S._state:5199,https://en.wikipedia.org:443/wiki/American_Revolution:15221 15222 15223 15224 15225 15226 15227 15228 15229 15230 15231 15232,https://en.wikipedia.org:443/wiki/Immigrant_health_care_in_the_United_States:5495 5496 5497 5498 5499 5500 5501 5502 5503 5504 5505 5506 5507 5508 5509 5510 5511 5512 5513 5514 5515 5516 5517 5518 5519 5520 5521 5522 5523 5524 5525 5526 5527 5528 5529 5530 5531,https://www.nytimes.com:443/spotlight/podcasts?page=6:2857,https://www.nytimes.com:443/2024/05/03/climate/nasa-satellites-data.html:898 899,https://www.nytimes.com:443/2024/05/03/arts/design/stanley-stellar-frieze-photography.html:774,https://en.wikipedia.org:443/wiki/U.S._Immigration_and_Customs_Enforcement:6010 6011,https://en.wikipedia.org:443/wiki/Spanish%E2%80%93American_War:14056 14057 14058 14059 14060 14061 14062 14063 14064 14065 14066 14067 14068 14069,https://en.wikipedia.org:443/wiki/Ice_hockey:7312,https://www.nytimes.com:443/2022/02/11/sports/horse-racing/medina-spirit-kentucky-derby-necropsy.html?searchResultPosition=2:623,https://www.sportsbusinessjournal.com:443/Archive/Sections/International.aspx:965 966,https://en.wikipedia.org:443/wiki/Soccer_in_the_United_States:8910,https://www.nytimes.com:443/2024/05/02/us/blast-mortar-brain-injury-military.html:1200 1202 1203,https://www.nytimes.com:443/2024/05/03/opinion/us-africa-niger-chad.html:665 666,https://en.wikipedia.org:443/wiki/Tribal_sovereignty_in_the_United_States:4242 4243,https://www.nytimes.com:443/by/mark-landler:395,https://en.wikipedia.org:443/wiki/Snowboarding:4077 4078 4079 4080,https://en.wikipedia.org:443/wiki/Greenhouse_gas_emissions_by_the_United_States:3888 3889,https://en.wikipedia.org:443/wiki/Race_and_maternal_health_in_the_United_States:3658 3659 3660 3661 3662 3663 3664 3665 3666 3667 3668 3669 3670 3671 3672 3673,https://commons.wikimedia.org:443/wiki/Category:War_in_Afghanistan_(2001%E2%80%932021):1379,https://en.wikipedia.org:443/wiki/Cycling_in_the_United_States:1044,https://en.wikipedia.org:443/wiki/Carlos_Bocanegra:2651,https://en.wikipedia.org:443/wiki/Perpetual_Union:3196,https://en.wikipedia.org:443/wiki/USA_Baseball:5638,https://www.nytimes.com:443/news-event/weather-climate:445,https://www.pbs.org:443/wgbh/americanexperience/features/klansville-faq/:1129,https://nytlicensing.com:443/content/harvard-health-publishing/:1614 1615,https://www.gallup.com:443/394505/indicator-life-evaluation-index.aspx:906,https://www.nytimes.com:443/live/2024/05/03/world/israel-gaza-war-hamas:1617,https://en.wikipedia.org:443/wiki/American_exceptionalism:5804 5805 5806 5807 5808 5809 5810 5811 5812 5813 5814 5815 5816 5817,https://en.wikipedia.org:443/wiki/Uniform_act:778,https://en.wikipedia.org:443/wiki/United_States_Declaration_of_Independence:10105 10106 10107 10108,https://www.theatlantic.com:443/magazine/archive/2023/01/homelessness-affordable-housing-crisis-democrats-causes/672224/:1329 1330 1331,https://nces.ed.gov:443/blogs/nces/post/where-can-i-find-information-about-the-condition-of-education-in-the-united-states:411,https://millercenter.org:443/president/adams/essays/clay-1825-secretary-of-state:631,https://en.wikipedia.org:443/wiki/New_England:9273,https://en.wikipedia.org:443/wiki/War_in_Afghanistan_(2001%E2%80%932021):17876 17877 17878 17879 17880,https://en.wikipedia.org:443/wiki/United_States_federal_civil_service:2412,https://en.wikipedia.org:443/wiki/College_basketball:5631,https://www.nytimes.com:443/2017/06/26/health/undocumented-immigrants-health-care.html:1043 1044 1045,https://www.tlc.com:443/shows/90-day-fiance-happily-ever-after/photo-galleries/90-day-fiance-happily-ever-after-couples-bios-season-8:794,https://en.wikipedia.org:443/wiki/Constitution_of_the_United_States:12494 12495 12496 12497 12498,https://en.wikipedia.org:443/wiki/National_Reconnaissance_Office:4399 4400 4401 4402,https://www.nytimes.com:443/2024/05/04/world/europe/russia-soldiers-women.html:1087,https://nytlicensing.com:443/license-our-content/:734 735,https://www.nytimes.com:443/2024/05/04/nyregion/columbia-protests-arrest-agitators-israel.html:1166 1167,https://www.forbes.com:443/2008/09/09/mls-soccer-beckham-biz-sports-cz_kb_0909mlsvalues.html:443 444,https://www.nytimes.com:443/news-event/israel-hamas-gaza:639,https://en.wikipedia.org:443/wiki/Architecture_of_the_United_States:5400 5401 5403 5404 5405 5406 5407 5408,https://en.wikipedia.org:443/wiki/The_Washington_Post:6543,https://en.wikipedia.org:443/wiki/Education_in_the_United_States:10441 10442 10443 10444 10445 10446 10447 10448 10449 10450 10451 10452 10453 10454 10455 10456 10457 10458 10459 10460 10461 10462 10463 10464 10465 10466 10467 10468 10469 10470 10471 10472 10473 10474,https://www.tlc.com:443/:395,https://history.army.mil:443/books/wwii/persian/index.htm:931 932 933,https://www.nytimes.com:443/2024/04/26/us/politics/kristi-noem-dog-killing.html:554,https://www.nytimes.com:443/interactive/2024/05/03/opinion/global-billionaires-tax.html:807,https://news.gallup.com:443/poll/224864/football-americans-favorite-sport-watch.aspx:1021 1022 1023,https://www.nytimes.com:443/2019/01/31/opinion/letters/letters-to-editor-new-york-times-women.html:545,https://en.wikipedia.org:443/wiki/Boston:12249 12250 12253 12254 12255,https://en.wikipedia.org:443/wiki/Vietnam_War:16669 16670 16671 16672 16673 16674 16675 16676 16677 16678 16679 16680 16681 16682 16683 16684 16685 16686 16687 16688 16689 16690 16691 16692 16693 16694,https://www.nytimes.com:443/section/health?page=7:1715 1716 1717 1719 1720 1721,https://en.wikipedia.org:443/wiki/Indiana:9791 9792 9793 9794 9795 9796,https://nytlicensing.com:443/:1013 1014 1015 1016 1017,https://nytlicensing.com:443/timesdigest/:754 755,https://theconversation.com:443/es:1234,https://www.tlc.com:443/inside-tlc/TLC-Casting:1079,https://en.wikipedia.org:443/wiki/Sports_in_Syria:1669,https://www.tlc.com:443/weddings/top-trends-for-spring-wedding-2024:658,https://en.wikipedia.org:443/wiki/Rugby_union_at_the_Summer_Olympics:1974,https://www.nytimes.com:443/section/science?page=9:2138 2139 2141 2142 2143 2144 2145 2146 2147 2148 2149 2150 2151 2152,https://www.businessinsider.com:443/fastest-growing-sport-in-america-2011-9:366 367,https://en.wikipedia.org:443/wiki/History_of_the_United_States_(2008%E2%80%93present):10768 10769 10770 10771 10772 10773 10774 10775 10776 10777,https://en.wikipedia.org:443/wiki/United_States_dollar:7351,https://en.wikipedia.org:443/wiki/Southern_United_States:11549 11550 11551 11552 11553 11554 11555 11556 11557 11558 11559 11560 11561,https://www.nytimes.com:443/section/world:1080 1081,https://www.nytimes.com:443/2024/05/04/opinion/alexandria-ocasio-cortez.html:1165 