stun stun-0 1285 https://en.wikipedia.org:443/wiki/New_England_Patriots:12429 12430 12431 12432,https://cooking.nytimes.com:443/recipes/1024760-chocolate-layer-cake:2143,https://en.wikipedia.org:443/wiki/Portal:Current_events:2765,https://www.patriots.com:443/news/check-out-the-2016-patriots-color-rush-jerseys-270621:1211,https://en.wikipedia.org:443/wiki/United_States_men%27s_national_soccer_team:8132,https://en.wikipedia.org:443/wiki/Democratic_Party_(United_States):12660,https://en.wikipedia.org:443/wiki/Summer_Olympic_Games:5373,https://en.wikipedia.org:443/wiki/Fenway_Park:9240,https://www.tlc.com:443/shows/90-day-fiance-happily-ever-after/photo-galleries/90-day-fiance-happily-ever-after-couples-bios-season-8:797,https://www.azcentral.com:443/story/sports/nfl/cardinals/2015/09/06/nfls-dynasties-decade/71605710/:700 701,https://www.forbes.com:443/sites/carlieporterfield/2022/07/26/heres-why-pickleball-the-fastest-growing-sport-in-america-is-bill-gates-favorite-game/:431,https://en.wikipedia.org:443/wiki/Inter_Miami:7372,https://www.theguardian.com:443/us/soccer:911 912,https://www.nytimes.com:443/2024/05/03/opinion/campus-protests-israel-gaza.html:2137,https://cooking.nytimes.com:443/:3682,https://www.sbnation.com:443/2014/10/5/6916597/nba-new-tv-deal-espn-turner-24-billion:700 