techniqu techniqu-0 2558 https://en.wikipedia.org:443/wiki/Beach_volleyball:4693 4694 4695 4696 4697 4698 4699 4700,https://bolavip.com:443/en/info/privacy:736,https://www.nytimes.com:443/2023/11/21/dining/restaurant-review-bangkok-supper-club.html:1035 1036,https://www.tlc.com:443/parenting/are-men-or-women-more-likely-to-want-kids-study:697,https://en.wikipedia.org:443/wiki/Prescription_drug_prices_in_the_United_States:6026,https://en.wikipedia.org:443/wiki/Bureau_of_Diplomatic_Security:4456,https://theconversation.com:443/the-rise-and-rise-of-ultimate-fighting-and-why-boxing-is-now-so-passe-55910:585 586,https://en.wikipedia.org:443/wiki/Culture_of_the_United_States:10771 10772 10773,https://www.nytimes.com:443/2024/04/18/t-magazine/chalet-des-iles-paris-restaurant.html:1197,https://en.wikipedia.org:443/wiki/Professional_boxer:2010 2011,https://www.nytimes.com:443/2024/05/04/nyregion/columbia-protests-arrest-agitators-israel.html:1193,https://en.wikipedia.org:443/wiki/Housing_in_the_United_States:1543,https://en.wikipedia.org:443/wiki/Summer_Olympic_Games:5628,https://en.wikipedia.org:443/wiki/Colonial_history_of_the_United_States:12731,https://en.wikipedia.org:443/wiki/Timeline_of_United_States_inventions_(after_1991):2709,https://www.azcentral.com:443/story/sports/nfl/cardinals/2015/09/06/nfls-dynasties-decade/71605710/:727,https://en.wikipedia.org:443/wiki/Architecture_of_the_United_States:5591 5592 5593 5594 5595,https://en.wikipedia.org:443/wiki/Indiana:9951,https://en.wikipedia.org:443/wiki/Immigrant_health_care_in_the_United_States:5613,https://en.wikipedia.org:443/wiki/American_exceptionalism:5910,https://en.wikipedia.org:443/wiki/College_basketball:5821,https://www.nytimes.com:443/2023/11/21/dining/restaurant-review-bangkok-supper-club.html?rref=collection%2Fcollection%2Frestaurant-guide:1035 1036,https://cooking.nytimes.com:443/:3716,https://en.wikipedia.org:443/wiki/Sports_in_France:2456,https://www.nytimes.com:443/section/food:534,https://en.wikipedia.org:443/wiki/Volleyball:5028 5029 5030 5031 5032 5033,https://en.wikipedia.org:443/wiki/National_Reconnaissance_Office:4488,https://www.businessinsider.com:443/personal-finance/mortgages:676,https://www.forbes.com:443/sites/greatspeculations/2019/09/22/a-strange-new-world-economic-slowdown-liquidity-issues/:780,https://en.wikipedia.org:443/wiki/Snowboarding:4176 4177 4178 4179 4180,https://en.wikipedia.org:443/wiki/War_in_Afghanistan_(2001%E2%80%932021):18945,https://en.wikipedia.org:443/wiki/Southern_United_States:11756,https://en.wikipedia.org:443/wiki/Cable_television:3354 