terri terri-0 2130 https://en.wikipedia.org:443/wiki/Portal:Current_events:2844 2845 2846 2847,https://cooking.nytimes.com:443/recipes/1022283-country-panzanella-with-watermelon-dressing:1862,https://www.patriots.com:443/news/ben-coates-elected-to-patriots-hall-of-fame-140866:1570,https://en.wikipedia.org:443/wiki/Federal_law_enforcement_in_the_United_States:2901,https://www.nytimes.com:443/section/arts/television?page=3:754,https://en.wikipedia.org:443/wiki/Terrorism_in_the_United_States:11752 11753 11754,https://www.azcentral.com:443/story/sports/nfl/cardinals/2015/09/06/nfls-dynasties-decade/71605710/:731,https://en.wikipedia.org:443/wiki/Iroquois:14083,https://en.wikipedia.org:443/wiki/Race_and_maternal_health_in_the_United_States:3734,http://www.redsoxdiehard.com:80/players/unifnums.html:4648 4649 4650 4651 4652 4653,https://en.wikipedia.org:443/wiki/History_of_the_United_States_(1849%E2%80%931865):5532,https://en.wikipedia.org:443/wiki/Drug_Enforcement_Administration:6258,https://en.wikipedia.org:443/wiki/Powers_of_the_president_of_the_United_States:3264 3265,https://en.wikipedia.org:443/wiki/Volleyball:5049,https://en.wikipedia.org:443/wiki/Baseball:9633 9634 9635 9636,https://en.wikipedia.org:443/wiki/Perpetual_Union:3270,https://en.wikipedia.org:443/wiki/Major_Arena_Soccer_League:2640,https://en.wikipedia.org:443/wiki/National_Boxing_Association:2787,https://en.wikipedia.org:443/wiki/Vietnam_War:17139 17140 17141,https://en.wikipedia.org:443/wiki/Boston_Red_Sox:11491 11492 11493 11494 11495 11496 11497 11498,https://en.wikipedia.org:443/wiki/War_in_Afghanistan_(2001%E2%80%932021):19051,https://en.wikipedia.org:443/wiki/Jack_Nicklaus:8694 8695,https://en.wikipedia.org:443/wiki/List_of_current_United_States_district_judges:10678 10679 10680 10681 10682,https://en.wikipedia.org:443/wiki/Associate_Justice_of_the_Supreme_Court_of_the_United_States:2726,https://en.wikipedia.org:443/wiki/USA_Baseball:6140 6141,https://en.wikipedia.org:443/wiki/New_England_Patriots:12985 12986,https://en.wikipedia.org:443/wiki/Education_in_the_United_States:10744 10754,https://en.wikipedia.org:443/wiki/American_Revolution:15610 