thing thing-0 10651 https://en.wikipedia.org:443/wiki/Iroquois:14123 14124 14125,https://en.wikipedia.org:443/wiki/New_England_Patriots:13007,https://www.businessinsider.com:443/s:641,https://en.wikipedia.org:443/wiki/Bureau_of_Diplomatic_Security:4495,https://www.azcentral.com:443/story/sports/nfl/cardinals/2015/09/06/nfls-dynasties-decade/71605710/:732,https://www.nytimes.com:443/section/arts/television?page=3:760 761,https://cooking.nytimes.com:443/recipes/1019333-millionaires-shortbread:1890,https://www.wired.com:443/2016/08/olympic-cities-everywhere/:770,https://www.businessinsider.com:443/real-estate:1242 1243 1244,https://en.wikipedia.org:443/wiki/Fenway_Park:9447 9448,https://www.nytimes.com:443/books/best-sellers/:1499 1500,https://www.nytimes.com:443/section/fashion:1058,https://www.nytimes.com:443/section/opinion?page=5:904 905,https://www.cnn.com:443/2020/08/24/politics/muslim-ice-detainees-pork-meals/index.html:795 796 797 798,https://www.nytimes.com:443/2024/04/14/fashion/vintage-watches-reissued.html:791 792,https://www.nytimes.com:443/interactive/2024/02/01/magazine/israel-founding-palestinian-conflict.html:1579,https://www.nytimes.com:443/section/opinion/contributors:200,https://www.nytimes.com:443/spotlight/graphics?page=10:2163,https://www.nytimes.com:443/2024/04/10/style/rishi-sunak-adidas-sambas.html:545,https://www.nytimes.com:443/2024/05/03/climate/nasa-satellites-data.html:948,https://www.nytimes.com:443/section/fashion/weddings:972,https://www.theguardian.com:443/type/video+tone/comment:693 694,https://en.wikipedia.org:443/wiki/United_States_Declaration_of_Independence:10309,https://en.wikipedia.org:443/wiki/Template_talk:United_States_topics:2248 2249 2250 2251,https://en.wikipedia.org:443/wiki/United_States_dollar:7534,https://en.wikipedia.org:443/wiki/Boston_Red_Sox:11522,https://en.wikipedia.org:443/wiki/Housing_in_the_United_States:1554,https://www.nytimes.com:443/2024/05/04/style/nonalcoholic-drinks-kids-mocktail.html:740 741 742 743 744,https://www.nytimes.com:443/2024/04/22/us/politics/israel-gaza-hamas-war.html:1541 1542,https://en.wikipedia.org:443/wiki/American_Revolution:15656,https://en.wikipedia.org:443/wiki/United_States_Polo_Association:1460,https://www.nytimes.com:443/2005/09/18/opinion/conventional-wisdom.html:538,https://www.nytimes.com:443/article/senate-races-2024-election.html:1198,https://www.nytimes.com:443/2023/11/21/dining/restaurant-review-bangkok-supper-club.html?rref=collection%2Fcollection%2Frestaurant-guide:1066 1067,https://en.wikipedia.org:443/wiki/Terrorism_in_the_United_States:11786,https://en.wikipedia.org:443/wiki/Indiana:10052,https://www.tlc.com:443/shows/90-day-fiance-happily-ever-after/photo-galleries/90-day-fiance-happily-ever-after-couples-bios-season-8:829 830 831,https://www.nytimes.com:443/2024/04/27/us/politics/trump-trial-fact-check.html:783 784,https://www.nytimes.com:443/2024/04/29/realestate/renters-astoria-queens.html:768,https://www.nytimes.com:443/live/2024/05/03/world/israel-gaza-war-hamas:1670,https://www.nytimes.com:443/live/2024/01/19/world/israel-hamas-news/a-un-official-says-israeli-treatment-of-detainees-may-amount-to-torture?smid=url-share:3446,https://www.nytimes.com:443/2024/04/17/opinion/venezuela-oil-sanctions.html:679,https://en.wikipedia.org:443/wiki/National_Football_League:7258 7259,https://www.nytimes.com:443/video:454,https://en.wikipedia.org:443/wiki/Template_talk:Americas_topic:679 680,https://www.nytimes.com:443/2024/05/02/arts/design/petrit-halilaj-kosovo-met-roof.html:1046 1047,https://www.nytimes.com:443/wirecutter/:2980,https://en.wikipedia.org:443/wiki/Boston:12564,https://www.telegraph.co.uk:443/news/worldnews/asia/afghanistan/8693247/Secret-peace-talks-between-US-and-Taliban-collapse-over-leaks.html:658 659 660,https://www.nytimes.com:443/section/world:1129,https://www.tlc.com:443/weddings/top-trends-for-spring-wedding-2024:695,https://en.wikipedia.org:443/wiki/Spanish%E2%80%93American_War:14445 14446,https://en.wikipedia.org:443/wiki/History_of_the_United_States_(1945%E2%80%931964):8271 8272 8273,https://www.nytimes.com:443/2024/05/03/opinion/campus-protests-israel-gaza.html:2194 2195 2196 2197 2198 2199 2200 2201 2202 2203 2204 2205 2206 2207 2208 2209 2210 2211,https://en.wikipedia.org:443/wiki/Fox_Sports_1:4927,https://en.wikipedia.org:443/wiki/Environmental_issues_in_the_United_States:3843 3844,https://www.nytimes.com:443/section/opinion/sunday:193,https://www.nytimes.com:443/video/op-docs:304 305,https://www.nytimes.com:443/spotlight/podcasts?page=6:2975,https://www.nytimes.com:443/section/science?page=9:2214,https://en.wikipedia.org:443/wiki/Jack_Nicklaus:8701,https://www.nytimes.com:443/by/pamela-paul:379,https://en.wikipedia.org:443/wiki/War_in_Afghanistan_(2001%E2%80%932021):19073 19074 19075,https://en.wikipedia.org:443/wiki/Democratic_Party_(United_States):12991 12992,https://en.wikipedia.org:443/wiki/Colonial_history_of_the_United_States:12829,https://en.wikipedia.org:443/wiki/Antisemitism_in_the_United_States:4387,https://en.wikipedia.org:443/wiki/History_of_the_United_States_(1849%E2%80%931865):5555,https://www.nytimes.com:443/spotlight/podcasts:1915,https://cooking.nytimes.com:443/recipes/1018626-eggs-benedict:1982,https://www.nytimes.com:443/2024/05/04/opinion/fat-activist-freedom-health.html:794 795 796,https://www.wikidata.org:443/wiki/Q861654:544 545,https://en.wikipedia.org:443/wiki/Prescription_drug_prices_in_the_United_States:6069 6070,https://www.nytimes.com:443/2024/05/02/business/horse-racing-deaths-kentucky-derby.html:1329,https://cooking.nytimes.com:443/recipes/1024469-tomato-cheddar-toasts:1655,https://www.nytimes.com:443/books/best-sellers/mass-market-monthly/:607,https://en.wikipedia.org:443/wiki/Tribal_sovereignty_in_the_United_States:4363,https://www.usatoday.com:443/story/sports/mlb/2013/08/11/fox-sports-1-versus-espn/2641247/:917 918 919 920,https://en.wikipedia.org:443/wiki/Constitution_of_the_United_States:12862,https://www.nytimes.com:443/2023/11/21/dining/restaurant-review-bangkok-supper-club.html:1066 1067,https://en.wikipedia.org:443/wiki/The_Washington_Post:6675 6676 6677,https://www.tlc.com:443/inside-tlc/TLC-Casting:1145 1146,https://www.nytimes.com:443/2024/04/12/fashion/weddings/elena-bauer-joshua-fagel-wedding.html:687,https://www.tlc.com:443/parenting/are-men-or-women-more-likely-to-want-kids-study:704 705 706,https://en.wikipedia.org:443/wiki/Sports_in_India:15865 15866,https://www.nytimes.com:443/live/2024/05/04/world/israel-gaza-war-hamas:1637,https://www.nytimes.com:443/2024/05/04/opinion/trump-second-term-illiberalism.html:1018,https://en.wikipedia.org:443/wiki/Education_in_the_United_States:10855 10856 10857,https://www.theguardian.com:443/sport/2017/aug/19/will-mcgregor-v-mayweather-save-american-boxing-or-bury-it?CMP=share_btn_link:1413,https://www.nytimes.com:443/section/books/review:505,https://stmarysmusings.sbnation.com:443/:781,https://www.nytimes.com:443/2024/05/04/opinion/alexandria-ocasio-cortez.html:1223 1224 1225,https://www.saturdaydownsouth.com:443/sports/ranking-top-25-rivalries-college-sports-2023/:1678 1679 1680 1681 1682,https://www.nytimes.com:443/2024/05/04/us/politics/trump-biden-campaign-young-voters.html:832 833,https://en.wikipedia.org:443/wiki/Olympic_Games:11755 11756 11757 11758,https://en.wikipedia.org:443/wiki/American_exceptionalism:5982,https://cooking.nytimes.com:443/recipes/1016295-mint-julep:1810,https://www.nytimes.com:443/section/t-magazine:964,https://www.cookingchanneltv.com:443/:292 293,https://www.nytimes.com:443/2024/04/24/us/palestinian-family-gaza-war-death.html:1558,https://www.nytimes.com:443/video/last-word:1112 1113 1114 1115 1116,https://www.nytimes.com:443/2024/05/04/business/energy-environment/tesla-electric-vehicles-supercharger.html:1014,https://en.wikipedia.org:443/wiki/Maternal_mortality_in_the_United_States:4668,https://www.nytimes.com:443/2024/05/04/world/europe/russia-soldiers-women.html:1121,https://en.wikipedia.org:443/wiki/College_athletics_in_the_United_States:4969 4970,https://www.nytimes.com:443/2024/04/24/podcasts/laufey-gen-zs-jazz-icon-sings-for-anxious-generation.html:1859 1860 1861 1862 1863 1864 1865 1866 1867 1868,https://www.nytimes.com:443/live/2024/05/04/us/college-campus-protests:2919 2920,https://en.wikipedia.org:443/wiki/Vietnam_War:17264,https://www.law.cornell.edu:443/supremecourt/text/74/700:5008 5009,https://www.nytimes.com:443/2023/04/14/us/politics/mike-pompeo-president-2024.html:566,https://en.wikipedia.org:443/wiki/Supreme_Court_of_the_United_States:16159,https://www.nytimes.com:443/section/books/review?page=7:1462,https://en.wikipedia.org:443/wiki/United_States_men%27s_national_soccer_team:8426,https://www.nytimes.com:443/spotlight/pop-culture:208,https://www.nytimes.com:443/2024/05/03/style/modern-love-we-didnt-know-it-was-the-last-time.html:715 716 717 718 719,https://www.nytimes.com:443/2024/05/03/opinion/us-africa-niger-chad.html:699,https://www.cnn.com:443/2020/09/26/politics/supreme-court-conservative/index.html:1302 1303 1304 1305,https://www.nytimes.com:443/2024/05/02/us/blast-mortar-brain-injury-military.html:1254,https://www.nytimes.com:443/2024/05/03/nyregion/trump-trial-hope-hicks-takeaways.html:726 727,https://en.wikipedia.org:443/wiki/National_League_(baseball):3518 3519,https://en.wikipedia.org:443/wiki/Cold_War:19705 19706 19707,https://www.nytimes.com:443/interactive/2024/03/28/travel/things-to-do-mumbai.html:1447,https://www.commanders.com:443/news/commanders-agree-to-trade-de-montez-sweat-to-chicago-bears:624 625 626 627 628 629 630 631 632 633,https://en.wikipedia.org:443/wiki/Culture_of_the_United_States:10886,https://en.wikipedia.org:443/wiki/Wikipedia:File_upload_wizard:1774 1775 1776 1777 1778 1779,https://www.nytimes.com:443/live/2024/05/04/us/biden-trump-campaign:637 638 639,https://www.nytimes.com:443/section/realestate:678 679 680,https://en.wikipedia.org:443/wiki/MLS:10640,https://www.usatoday.com:443/story/news/politics/2022/08/04/krysten-sinema-inflation-reduction-act-senator-democrats-vote/10234906002/:472,https://www.theguardian.com:443/us/soccer:940,https://www.nytimes.com:443/section/fashion?page=9:2238 2239,https://www.tlc.com:443/:421,https://en.wikipedia.org:443/wiki/Sports_in_Cuba:1268,https://en.wikipedia.org:443/wiki/Drug_Enforcement_Administration:6269,https://en.wikipedia.org:443/wiki/USA_Baseball:6148,https://www.nytimes.com:443/section/magazine?page=8:1426 1427 1428,https://cooking.nytimes.com:443/recipes/1013611-rhubarb-upside-down-cake:2020 2021 2022 2023 2024,https://www.forbes.com:443/sites/greatspeculations/2019/09/22/a-strange-new-world-economic-slowdown-liquidity-issues/:786 