threw threw-0 1145 https://en.wikipedia.org:443/wiki/Jack_Nicklaus:8721,https://en.wikipedia.org:443/wiki/Boston:12585 12586,https://en.wikipedia.org:443/wiki/New_England_Patriots:13016,https://www.nytimes.com:443/live/2024/05/04/us/college-campus-protests:2931,https://en.wikipedia.org:443/wiki/Speaker_of_the_United_States_House_of_Representatives:5443,https://www.nytimes.com:443/interactive/2024/05/03/us/ucla-protests-encampment-violence.html:997,https://www.azcentral.com:443/story/sports/nfl/cardinals/2015/09/06/nfls-dynasties-decade/71605710/:733,https://www.nytimes.com:443/2024/05/03/opinion/campus-protests-israel-gaza.html:2225,https://en.wikipedia.org:443/wiki/New_England:9513,https://en.wikipedia.org:443/wiki/Sports_in_Washington:4656 4657,https://millercenter.org:443/president/adams/essays/clay-1825-secretary-of-state:662,https://en.wikipedia.org:443/wiki/Supreme_Court_of_the_United_States:16203,https://en.wikipedia.org:443/wiki/Boston_Red_Sox:11531 11532 11533 11534,https://www.nytimes.com:443/2024/05/03/style/modern-love-we-didnt-know-it-was-the-last-time.html:725,https://en.wikipedia.org:443/wiki/Rugby_union_at_the_Summer_Olympics:2066 