touchdown touchdown-0 877 https://commons.wikimedia.org:443/wiki/Category:Sports_in_Maryland:677 678,https://www.saturdaydownsouth.com:443/sports/ranking-top-25-rivalries-college-sports-2023/:1721,https://en.wikipedia.org:443/wiki/New_England_Patriots:13324 13325 13326 13327 13328 13329 13330 13331 13332 13333 13334 13335 13336 13337 13338 13339 13340 13341 13342 13343 13344 13345 13346 13347 13348 13349 13350 13351 13352 13353 13354,https://www.patriots.com:443/news/ben-coates-elected-to-patriots-hall-of-fame-140866:1625 1626 1627 1628 1629 1630 1631 1632,https://en.wikipedia.org:443/wiki/National_Football_League:7385 7386 7387 7388 7389 7390 7391 7392 7393 7394 7395,https://www.azcentral.com:443/story/sports/nfl/cardinals/2015/09/06/nfls-dynasties-decade/71605710/:750 751 752 753 754 755 756,https://www.commanders.com:443/news/commanders-agree-to-trade-de-montez-sweat-to-chicago-bears:647 