troi troi-0 2001 https://en.wikipedia.org:443/wiki/Sports_in_American_Samoa:1412,https://en.wikipedia.org:443/wiki/United_States_dollar:7710 7711 7712 7713 7714 7715 7716 7717 7718 7719 7720 7721 7722 7723 7724 7725 7726 7727,https://en.wikipedia.org:443/wiki/National_League_(baseball):3599 3600 3601,https://cooking.nytimes.com:443/recipes/1013611-rhubarb-upside-down-cake:2068,https://www.patriots.com:443/news/ben-coates-elected-to-patriots-hall-of-fame-140866:1646 1647,https://en.wikipedia.org:443/wiki/Indiana:10306 10307,https://www.nytimes.com:443/section/nyregion:503,https://www.nytimes.com:443/spotlight/graphics?page=10:2239,https://en.wikipedia.org:443/wiki/List_of_current_United_States_district_judges:10905,https://www.azcentral.com:443/story/sports/nfl/cardinals/2015/09/06/nfls-dynasties-decade/71605710/:761 762,https://en.wikipedia.org:443/wiki/Consolidated_city-county:3322,https://en.wikipedia.org:443/wiki/Boston_Red_Sox:11832 11833,https://en.wikipedia.org:443/wiki/Snowboarding:4344,https://en.wikipedia.org:443/wiki/Cable_television:3666,https://en.wikipedia.org:443/wiki/National_Reconnaissance_Office:4577,https://www.nytimes.com:443/spotlight/graphics:579,http://www.redsoxdiehard.com:80/players/unifnums.html:4802,https://en.wikipedia.org:443/wiki/Iroquois:14611,https://en.wikipedia.org:443/wiki/New_England_Patriots:13411 13412 13413 13414 13415 13416 13417 13418 13419,https://en.wikipedia.org:443/wiki/USA_Baseball:6325 6326 6327,https://en.wikipedia.org:443/wiki/MLS:10866,https://en.wikipedia.org:443/wiki/New_England:9713,https://www.espn.com:443/college-football/boxscore/_/gameId/401520324:481,https://en.wikipedia.org:443/wiki/Carlos_Bocanegra:2770,https://en.wikipedia.org:443/wiki/Ice_hockey:7850,https://www.nytimes.com:443/section/nyregion?page=4:1121 1122,https://www.patriots.com:443/team/players-roster/:894,https://en.wikipedia.org:443/wiki/Sports_in_Samoa:1752,https://en.wikipedia.org:443/wiki/Sports_in_Cuba:1304,https://en.wikipedia.org:443/wiki/Olympic_Games:11973 