turnov turnov-0 684 https://en.wikipedia.org:443/wiki/National_League_(baseball):3604,https://en.wikipedia.org:443/wiki/WNBA%27s_Top_15_Team:816 817,https://en.wikipedia.org:443/wiki/College_basketball:6078 6079,https://en.wikipedia.org:443/wiki/NBA:7405 7406 7407,https://en.wikipedia.org:443/wiki/New_England_Patriots:13436,https://www.azcentral.com:443/story/sports/nfl/cardinals/2015/09/06/nfls-dynasties-decade/71605710/:765,https://nces.ed.gov:443/blogs/nces/post/where-can-i-find-information-about-the-condition-of-education-in-the-united-states:440,https://en.wikipedia.org:443/wiki/Mayoralty_in_the_United_States:805,https://en.wikipedia.org:443/wiki/Maternal_mortality_in_the_United_States:4757 