turner turner-0 3039 https://en.wikipedia.org:443/wiki/MLB_Network:4875,https://en.wikipedia.org:443/wiki/History_of_the_United_States_(1849%E2%80%931865):5665 5666,http://www.redsoxdiehard.com:80/players/unifnums.html:4808,https://www.nytimes.com:443/section/fashion/weddings:1016,https://en.wikipedia.org:443/wiki/Perpetual_Union:3382,https://en.wikipedia.org:443/wiki/2023_Big_Ten_Conference_football_season:5904 5905 5906 5907,https://www.nytimes.com:443/section/obituaries:688,https://en.wikipedia.org:443/wiki/Spanish%E2%80%93American_War:14810 14811,https://en.wikipedia.org:443/wiki/Fenway_Park:9679 9680 9681 9682,https://en.wikipedia.org:443/wiki/List_of_mountains_of_the_United_States:10695 10696,https://www.nytimes.com:443/section/world:1177,https://www.nytimes.com:443/section/theater:550,https://en.wikipedia.org:443/wiki/Articles_of_Confederation:7289,https://en.wikipedia.org:443/wiki/The_Washington_Post:6842,https://en.wikipedia.org:443/wiki/New_England:9720,https://en.wikipedia.org:443/wiki/Environmental_issues_in_the_United_States:3943,https://en.wikipedia.org:443/wiki/Soccer_in_the_United_States:9541,https://en.wikipedia.org:443/wiki/USA_Baseball:6335,https://en.wikipedia.org:443/wiki/American_exceptionalism:6142 6143 6144,https://en.wikipedia.org:443/wiki/United_States_men%27s_national_soccer_team:8681 8682 8683 8684,https://en.wikipedia.org:443/wiki/Boston:12828,https://en.wikipedia.org:443/wiki/Vietnam_War:17792 17793 17794 17795,https://en.wikipedia.org:443/wiki/New_England_Patriots:13435,https://en.wikipedia.org:443/wiki/Louise_Suggs:1235,https://en.wikipedia.org:443/wiki/Baseball:9885,https://en.wikipedia.org:443/wiki/Americans:8339,https://www.azcentral.com:443/story/sports/nfl/cardinals/2015/09/06/nfls-dynasties-decade/71605710/:763,https://en.wikipedia.org:443/wiki/History_of_the_United_States_(2008%E2%80%93present):11533,https://en.wikipedia.org:443/wiki/History_of_the_United_States_(1945%E2%80%931964):8485,https://en.wikipedia.org:443/wiki/War_in_Afghanistan_(2001%E2%80%932021):19574,https://en.wikipedia.org:443/wiki/Colonial_history_of_the_United_States:13146 13147,https://www.sbnation.com:443/2014/10/5/6916597/nba-new-tv-deal-espn-turner-24-billion:750 751 752 753 754 755 756,https://www.nytimes.com:443/2024/05/02/style/central-park-hat-luncheon.html:813,https://en.wikipedia.org:443/wiki/Ice_hockey:7869,https://en.wikipedia.org:443/wiki/Terrorism_in_the_United_States:12108 12109 12110,https://en.wikipedia.org:443/wiki/Gymnastics_in_the_United_States:2116,https://en.wikipedia.org:443/wiki/Education_in_the_United_States:11074,https://en.wikipedia.org:443/wiki/Great_Recession_in_the_United_States:5310,https://www.nytimes.com:443/trending/:543 544 545 546,https://en.wikipedia.org:443/wiki/Outline_of_the_history_of_the_United_States:5428,https://en.wikipedia.org:443/wiki/American_Revolution:16047,https://en.wikipedia.org:443/wiki/Southern_United_States:12158 12159,https://en.wikipedia.org:443/wiki/Sports_in_the_United_States:5227,https://en.wikipedia.org:443/wiki/Cold_War:20164 20165 20166 