ty ty-0 1293 https://www.nytimes.com:443/2024/05/04/nyregion/trump-trial-scandals-testimony.html:1354,http://www.britskelisty.cz:80/9808/19980821h.html:1179,https://en.wikipedia.org:443/wiki/Baseball:9897,https://en.wikipedia.org:443/wiki/Fenway_Park:9685 9686,https://en.wikipedia.org:443/wiki/Cold_War:20184,https://en.wikipedia.org:443/wiki/United_States_men%27s_national_soccer_team:8689 8690,https://www.theguardian.com:443/sport/nhl:689,https://www.azcentral.com:443/story/sports/nfl/cardinals/2015/09/06/nfls-dynasties-decade/71605710/:766,https://en.wikipedia.org:443/wiki/Sports_in_France:2579,https://cooking.nytimes.com:443/recipes/1023559-ina-gartens-bourbon-chocolate-pecan-pie:1844,https://cooking.nytimes.com:443/christmas:1679,https://en.wikipedia.org:443/wiki/The_Washington_Post:6857,https://en.wikipedia.org:443/wiki/New_England_Patriots:13440 13441 13442 13443 13444 13445 13446 13447 13448 13449 13450 13451 13452 13453 13454 13455 13456 13457 13458,https://en.wikipedia.org:443/wiki/2023_Big_Ten_Conference_football_season:5908 5909 5910,https://en.wikipedia.org:443/wiki/Boston_Red_Sox:11869,https://en.wikipedia.org:443/wiki/Sports_in_Syria:1887,https://en.wikipedia.org:443/wiki/Jack_Nicklaus:9305 9306 9307 9308 9309 9310,http://www.redsoxdiehard.com:80/players/unifnums.html:4810 