undraft undraft-0 261 https://en.wikipedia.org:443/wiki/NBA:7419,https://www.patriots.com:443/team/players-roster/:907,https://en.wikipedia.org:443/wiki/New_England_Patriots:13495,https://www.azcentral.com:443/story/sports/nfl/cardinals/2015/09/06/nfls-dynasties-decade/71605710/:768 