vinatieri vinatieri-0 218 https://en.wikipedia.org:443/wiki/New_England_Patriots:13713 13714 13715 13716 13717 13718 13719 13720 13721 13722,https://www.azcentral.com:443/story/sports/nfl/cardinals/2015/09/06/nfls-dynasties-decade/71605710/:772 