vinc vinc-0 805 https://www.saturdaydownsouth.com:443/sports/ranking-top-25-rivalries-college-sports-2023/:1809,https://www.nytimes.com:443/2024/05/02/business/horse-racing-deaths-kentucky-derby.html:1434,https://en.wikipedia.org:443/wiki/Sports_in_Washington:4904,https://en.wikipedia.org:443/wiki/List_of_current_United_States_district_judges:11458,https://www.azcentral.com:443/story/sports/nfl/cardinals/2015/09/06/nfls-dynasties-decade/71605710/:773,https://en.wikipedia.org:443/wiki/Basketball_in_the_United_States:1306,https://en.wikipedia.org:443/wiki/National_Football_League:7605 7606 7607 7608 7609,https://en.wikipedia.org:443/wiki/Fenway_Park:9859 9860,https://en.wikipedia.org:443/wiki/New_England_Patriots:13723 13724 13725 13726 13727 13728 13729 13730,https://en.wikipedia.org:443/wiki/Jack_Nicklaus:9466 