vinci vinci-0 174 https://en.wikipedia.org:443/wiki/Drug_Enforcement_Administration:6558,https://www.azcentral.com:443/story/sports/nfl/cardinals/2015/09/06/nfls-dynasties-decade/71605710/:774 