walker walker-0 2756 https://en.wikipedia.org:443/wiki/Americans:8685,https://www.espn.com:443/college-football/boxscore/_/gameId/401520383:370,https://en.wikipedia.org:443/wiki/List_of_mountains_of_the_United_States:10981,https://en.wikipedia.org:443/wiki/Fenway_Park:9883,https://en.wikipedia.org:443/wiki/Baseball:10139,https://www.azcentral.com:443/story/sports/nfl/cardinals/2015/09/06/nfls-dynasties-decade/71605710/:775,https://www.independent.co.uk:443/tv/travel-smart:1162 1163,https://en.wikipedia.org:443/wiki/United_States_Olympic_%26_Paralympic_Committee:4135,https://en.wikipedia.org:443/wiki/Mayoralty_in_the_United_States:846 847 848 849,https://en.wikipedia.org:443/wiki/Boston_Red_Sox:12090 12091,https://en.wikipedia.org:443/wiki/Terrorism_in_the_United_States:12485,https://www.nytimes.com:443/wirecutter/:3244,https://www.espn.com:443/college-football/boxscore/_/gameId/401520200:419,https://en.wikipedia.org:443/wiki/Democratic_Party_(United_States):13826,https://www.nytimes.com:443/section/realestate:725,https://www.nytimes.com:443/video/us/100000007348445/breonna-taylor-death-cops.html:1123 1124 1125 1126 1127 1128 1129 1130 1131 1132 1133 1134,https://en.wikipedia.org:443/wiki/History_of_the_United_States_(1945%E2%80%931964):8807,https://en.wikipedia.org:443/wiki/Environmental_issues_in_the_United_States:4157,https://en.wikipedia.org:443/wiki/Spanish%E2%80%93American_War:15326 15327 15328 15329,http://www.redsoxdiehard.com:80/players/unifnums.html:4914 4915 4916 4917 4918,https://en.wikipedia.org:443/wiki/Agriculture_in_the_United_States:5821,https://en.wikipedia.org:443/wiki/Snowboarding:4467 4468,https://www.nytimes.com:443/es/:1382,https://en.wikipedia.org:443/wiki/Jack_Nicklaus:9497 9498 9499,https://en.wikipedia.org:443/wiki/2023_Big_Ten_Conference_football_season:5998,https://en.wikipedia.org:443/wiki/United_States_men%27s_national_soccer_team:9180,https://en.wikipedia.org:443/wiki/American_Sign_Language:7027,https://www.nytimes.com:443/spotlight/graphics?page=10:2335 2336 2337,https://en.wikipedia.org:443/wiki/War_in_Afghanistan_(2001%E2%80%932021):20104,https://en.wikipedia.org:443/wiki/American_exceptionalism:6380,https://www.nytimes.com:443/column/op-docs:407,https://www.nytimes.com:443/2024/05/03/opinion/campus-protests-israel-gaza.html:2401,https://en.wikipedia.org:443/wiki/Education_in_the_United_States:11537,https://en.wikipedia.org:443/wiki/Tribal_sovereignty_in_the_United_States:4888 4889,https://en.wikipedia.org:443/wiki/History_of_the_United_States_(1849%E2%80%931865):5946,https://en.wikipedia.org:443/wiki/List_of_current_United_States_district_judges:11508 11509 11510 11511 11512 11513,https://en.wikipedia.org:443/wiki/Vietnam_War:19538,https://en.wikipedia.org:443/wiki/Southern_United_States:12706 