walsh walsh-0 1352 https://en.wikipedia.org:443/wiki/War_in_Afghanistan_(2001%E2%80%932021):20111 20112,https://en.wikipedia.org:443/wiki/Speaker_of_the_United_States_House_of_Representatives:5755,https://www.nytimes.com:443/spotlight/podcasts:2052,https://en.wikipedia.org:443/wiki/Beach_volleyball:5291,https://en.wikipedia.org:443/wiki/History_of_the_United_States_(2008%E2%80%93present):11960,https://en.wikipedia.org:443/wiki/Colonial_history_of_the_United_States:13538,https://www.azcentral.com:443/story/sports/nfl/cardinals/2015/09/06/nfls-dynasties-decade/71605710/:776,https://www.nytimes.com:443/books/best-sellers/:1552,https://www.nytimes.com:443/section/arts/dance:454,https://en.wikipedia.org:443/wiki/Boston_Red_Sox:12110,https://en.wikipedia.org:443/wiki/Democratic_Party_(United_States):13837,https://en.wikipedia.org:443/wiki/The_Washington_Post:6998,https://en.wikipedia.org:443/wiki/Fenway_Park:9918,https://en.wikipedia.org:443/wiki/American_exceptionalism:6383,https://en.wikipedia.org:443/wiki/Bureau_of_Diplomatic_Security:4718,http://www.redsoxdiehard.com:80/players/unifnums.html:4924,https://www.nytimes.com:443/spotlight/podcasts?page=6:3189,https://en.wikipedia.org:443/wiki/Boston:13214 13215 13216 13217 13218 13219,https://en.wikipedia.org:443/wiki/File:Wiki_letter_w_cropped.svg:767,https://en.wikipedia.org:443/wiki/Baseball:10151 10152 