webster webster-0 1267 https://en.wikipedia.org:443/wiki/Constitution_of_the_United_States:13789 13790 13791,http://www.redsoxdiehard.com:80/players/unifnums.html:4953 4954 4955,https://en.wikipedia.org:443/wiki/New_England:10177 10178,https://en.wikipedia.org:443/wiki/Indiana:10855,https://en.wikipedia.org:443/wiki/USA_Baseball:6749,https://en.wikipedia.org:443/wiki/Iroquois:15350,https://en.wikipedia.org:443/wiki/United_States_Declaration_of_Independence:11075 11076,https://en.wikipedia.org:443/wiki/War_in_Afghanistan_(2001%E2%80%932021):20637,https://en.wikipedia.org:443/wiki/Speaker_of_the_United_States_House_of_Representatives:5796,https://en.wikipedia.org:443/wiki/Southern_United_States:12890,https://www.azcentral.com:443/story/sports/nfl/cardinals/2015/09/06/nfls-dynasties-decade/71605710/:779,https://en.wikipedia.org:443/wiki/Consolidated_city-county:3470,https://en.wikipedia.org:443/wiki/Boston:13343 13344,https://en.wikipedia.org:443/wiki/History_of_the_United_States_(1945%E2%80%931964):8995,https://en.wikipedia.org:443/wiki/Sergeant_at_Arms_of_the_United_States_Senate:2237,https://en.wikipedia.org:443/wiki/American_exceptionalism:6454,https://en.wikipedia.org:443/wiki/Culture_of_the_United_States:11714,https://en.wikipedia.org:443/wiki/Sports_in_Kentucky:4696 