wide wide-0 6523 https://en.wikipedia.org:443/wiki/Special_district_(United_States):1744,https://en.wikipedia.org:443/wiki/Sports_in_Cuba:1370,https://en.wikipedia.org:443/wiki/Constitution_of_the_United_States:13826 13827,https://en.wikipedia.org:443/wiki/Culture_of_the_United_States:11780 11781 11782,https://en.wikipedia.org:443/wiki/Drug_Enforcement_Administration:6668,https://www.nytimes.com:443/section/reader-center:693,https://en.wikipedia.org:443/wiki/Horse_racing_in_the_United_States:1790,https://spoiler.bolavip.com:443/en/celebrities/ryan-gosling-net-worth:563,https://en.wikipedia.org:443/wiki/Federal_law_enforcement_in_the_United_States:3155,https://en.wikipedia.org:443/wiki/Sports_in_India:16754 16755 16756 16757,https://www.nytimes.com:443/spotlight/nytimesineducation:1218 1219 1220,https://www.nytimes.com:443/2024/05/03/climate/nasa-satellites-data.html:1032,https://en.wikipedia.org:443/wiki/MLS:11294 11295 11296,https://www.azcentral.com:443/story/sports/nfl/cardinals/2015/09/06/nfls-dynasties-decade/71605710/:781,https://en.wikipedia.org:443/wiki/Columbia_(personification):2885,https://en.wikipedia.org:443/wiki/College_athletics_in_the_United_States:5350,https://www.nytimes.com:443/2024/04/18/t-magazine/chalet-des-iles-paris-restaurant.html:1316,https://en.wikipedia.org:443/wiki/USA_Baseball:6775,https://en.wikipedia.org:443/wiki/History_of_the_United_States_(1945%E2%80%931964):9049 9050,https://en.wikipedia.org:443/wiki/Beach_volleyball:5322 5323 5324 5325 5326 5327,https://www.ncaa.org:443/sports/2021/5/11/division-i-finances.aspx:331,https://www.nytimes.com:443/books/best-sellers/:1623 1624,https://www.pbs.org:443/wgbh/americanexperience/features/klansville-faq/:1286,https://en.wikipedia.org:443/wiki/Greenhouse_gas_emissions_by_the_United_States:4308,https://en.wikipedia.org:443/wiki/Fenway_Park:10001 10002,https://en.wikipedia.org:443/wiki/Spanish%E2%80%93American_War:16016,https://en.wikipedia.org:443/wiki/American_Sign_Language:7082 7083,https://en.wikipedia.org:443/wiki/College_basketball:6297,https://www.ncaa.org:443/sports/2021/5/3/membership-directory.aspx:294,https://en.wikipedia.org:443/wiki/Forbes:2221,https://en.wikipedia.org:443/wiki/Consolidated_city-county:3476,https://en.wikipedia.org:443/wiki/Arkansas_River:2638,https://en.wikipedia.org:443/wiki/Powers_of_the_president_of_the_United_States:3612,https://en.wikipedia.org:443/wiki/NBA:7679,https://en.wikipedia.org:443/wiki/Sports_in_the_United_States:5543,https://en.wikipedia.org:443/wiki/Sports_in_El_Salvador:3575,https://en.wikipedia.org:443/wiki/National_Football_League:7705,https://en.wikipedia.org:443/wiki/National_monument_(United_States):1760,https://www.nytimes.com:443/section/books/review:548,https://en.wikipedia.org:443/wiki/U.S._state:5851,https://en.wikipedia.org:443/wiki/2023_Big_Ten_Conference_football_season:6123 6124,https://en.wikipedia.org:443/wiki/Environmental_issues_in_the_United_States:4322,https://en.wikipedia.org:443/wiki/Jack_Nicklaus:9633 9634,https://en.wikipedia.org:443/wiki/Volleyball:5514 5515 5516,https://bolavip.com:443/en:886 887 888,https://www.bbc.co.uk:443/news/world-us-canada-55358342:563,https://en.wikipedia.org:443/wiki/War_in_Afghanistan_(2001%E2%80%932021):20713 20714,https://en.wikipedia.org:443/wiki/Immigrant_health_care_in_the_United_States:6018,https://en.wikipedia.org:443/wiki/Ice_hockey:8097 8098 8099 8100,https://en.wikipedia.org:443/wiki/Southern_United_States:13020 13021 13022 13023,https://en.wikipedia.org:443/wiki/Mayoralty_in_the_United_States:859,https://en.wikipedia.org:443/wiki/Iroquois:15432 15433 15434,https://en.wikipedia.org:443/wiki/Education_in_the_United_States:11648 11649 11650 11651,https://www.nytimes.com:443/2022/02/11/sports/horse-racing/medina-spirit-kentucky-derby-necropsy.html?searchResultPosition=2:722,https://en.wikipedia.org:443/wiki/Olympic_Games:12415,https://www.nytimes.com:443/column/op-docs:413,https://www.forbes.com:443/sites/zachslaton/2012/10/15/how-the-mls-playoff-format-punishes-ambitious-teams/:986,https://en.wikipedia.org:443/wiki/Boston:13427 13428 13429,https://www.nytimes.com:443/2024/05/04/nyregion/columbia-protests-arrest-agitators-israel.html:1330,https://en.wikipedia.org:443/wiki/Race_and_maternal_health_in_the_United_States:3981,https://en.wikipedia.org:443/wiki/New_England:10226,https://cooking.nytimes.com:443/recipes/1022283-country-panzanella-with-watermelon-dressing:2033 2034 2035,https://en.wikipedia.org:443/wiki/Indiana:10930 10931,https://en.wikipedia.org:443/wiki/Democratic_Party_(United_States):14071 14072,https://www.gallup.com:443/corporate/468077/media-center.aspx:620,https://www.nytimes.com:443/spotlight/graphics:617,https://en.wikipedia.org:443/wiki/United_States_dollar:8147 8148 8149 8150 8151 8152 8153 8154 8155 8156 8157 8158,https://en.wikipedia.org:443/wiki/Henley_Royal_Regatta:3957 3958,https://www.ncaa.org:443/sports/2021/4/21/division-ii-academics.aspx:365,https://en.wikipedia.org:443/wiki/Cold_War:21942,https://nytlicensing.com:443/magazines/:1191 1192,https://en.wikipedia.org:443/wiki/The_Washington_Post:7419 7420,https://en.wikipedia.org:443/wiki/Timeline_of_United_States_inventions_(after_1991):3063,https://www.nytimes.com:443/spotlight/graphics?page=10:2384,https://en.wikipedia.org:443/wiki/United_States_federal_civil_service:2663,https://www.ncaa.org:443/sb_output.aspx?form=28:232,https://en.wikipedia.org:443/wiki/Soccer_in_the_United_States:10328,https://en.wikipedia.org:443/wiki/Baseball:10241 10242 10243,https://en.wikipedia.org:443/wiki/Sports_in_Armenia:2735,https://nytlicensing.com:443/license-our-content/:847,https://www.theguardian.com:443/us-news/2020/aug/25/qanon-conspiracy-theory-explained-trump-what-is:1186 1187,https://www.nytimes.com:443/section/books/review?page=7:1575,https://en.wikipedia.org:443/wiki/Summer_Olympic_Games:6107,https://en.wikipedia.org:443/wiki/Sports_in_Washington:5185,https://en.wikipedia.org:443/wiki/National_Reconnaissance_Office:4766,https://en.wikipedia.org:443/wiki/Snowboarding:4513,https://nytlicensing.com:443/:1158,https://www.nytimes.com:443/subscription/home-delivery:99,https://en.wikipedia.org:443/wiki/New_England_Patriots:13920 13921 13922 13923 13924 13925 13926 13927 13928 13929 13930 13931 13932 13933 13934,https://en.wikipedia.org:443/wiki/Colonial_history_of_the_United_States:13838 13839 13840,https://en.wikipedia.org:443/wiki/United_States_Public_Health_Service_Commissioned_Corps:3111,https://en.wikipedia.org:443/wiki/Maternal_mortality_in_the_United_States:5012 5013 