willi willi-0 2161 https://en.wikipedia.org:443/wiki/Baseball:10296,http://www.redsoxdiehard.com:80/players/unifnums.html:5035 5036 5037 5038 5039 5040,https://en.wikipedia.org:443/wiki/National_Football_League:7741 7742,https://en.wikipedia.org:443/wiki/Cold_War:21999,https://en.wikipedia.org:443/wiki/War_in_Afghanistan_(2001%E2%80%932021):20744,https://en.wikipedia.org:443/wiki/Southern_United_States:13065,https://en.wikipedia.org:443/wiki/Terrorism_in_the_United_States:12753,https://en.wikipedia.org:443/wiki/Architecture_of_the_United_States:6093,https://en.wikipedia.org:443/wiki/Fenway_Park:10048,https://en.wikipedia.org:443/wiki/Boston_Red_Sox:12300,https://en.wikipedia.org:443/wiki/USA_Baseball:6793,https://en.wikipedia.org:443/wiki/Housing_in_the_United_States:1722,https://www.nytimes.com:443/issue/magazine/2024/04/12/the-41424-issue:241,https://en.wikipedia.org:443/wiki/Sports_in_Kentucky:4762,https://en.wikipedia.org:443/wiki/Constitution_of_the_United_States:13911,https://en.wikipedia.org:443/wiki/New_England_Patriots:13992 13993 13994 13995 13996 13997 13998,https://www.nytimes.com:443/spotlight/graphics?page=10:2388 2389,https://en.wikipedia.org:443/wiki/Supreme_Court_of_the_United_States:17390,https://www.azcentral.com:443/story/sports/nfl/cardinals/2015/09/06/nfls-dynasties-decade/71605710/:782 783 784 785 786,https://en.wikipedia.org:443/wiki/Fox_Sports_1:5383,https://www.nytimes.com:443/2021/08/16/world/asia/afghanistan-taliban-video.html:897 898 899,https://en.wikipedia.org:443/wiki/List_of_current_United_States_district_judges:11732,https://en.wikipedia.org:443/wiki/Francis_Olympic_Field:2397,https://en.wikipedia.org:443/wiki/Jack_Nicklaus:9665 9666 9667 9668 9669 9670 9671 9672 9673 9674 9675 9676 9677 9678 9679 9680 9681,https://en.wikipedia.org:443/wiki/History_of_the_United_States_(1945%E2%80%931964):9097 9098,https://www.nytimes.com:443/spotlight/visual-investigations:1766 1767 1768 1769 1770 1771 1772 1773 1774 1775 1776 1777,https://en.wikipedia.org:443/wiki/Associate_Justice_of_the_Supreme_Court_of_the_United_States:2960,https://www.cookingchanneltv.com:443/recipes/tia-mowry/spaghetti-and-turkey-meatballs-2803024:899 