xlii xlii-0 244 https://en.wikipedia.org:443/wiki/Sports_in_Arizona:1405 1406,https://en.wikipedia.org:443/wiki/New_England_Patriots:14186 14187 14188 14189,https://www.azcentral.com:443/story/sports/nfl/cardinals/2015/09/06/nfls-dynasties-decade/71605710/:797 