xlix xlix-0 332 https://en.wikipedia.org:443/wiki/New_England_Patriots:14190 14191 14192 14193 14194 14195 14196 14197 14198 14199,https://en.wikipedia.org:443/wiki/Sports_in_Arizona:1407 1408,https://en.wikipedia.org:443/wiki/Fenway_Park:10138,https://www.azcentral.com:443/story/sports/nfl/cardinals/2015/09/06/nfls-dynasties-decade/71605710/:798 