xxvii xxvii-0 350 https://en.wikipedia.org:443/wiki/Cold_War:22118,https://en.wikipedia.org:443/wiki/Constitution_of_the_United_States:14020 14021 14022,https://en.wikipedia.org:443/wiki/USA_Baseball:6908,https://en.wikipedia.org:443/wiki/Summer_Olympic_Games:6233,https://www.azcentral.com:443/story/sports/nfl/cardinals/2015/09/06/nfls-dynasties-decade/71605710/:799 