yard yard-0 2857 https://www.businessinsider.com:443/real-estate:1329,https://en.wikipedia.org:443/wiki/Jack_Nicklaus:9962 9963 9964 9965 9966 9968 9969 9970 9971 9972 9973,https://en.wikipedia.org:443/wiki/Sports_in_Venezuela:2574,https://en.wikipedia.org:443/wiki/History_of_the_United_States_(2008%E2%80%93present):12356,https://en.wikipedia.org:443/wiki/Culture_of_the_United_States:11917 11918,https://www.nytimes.com:443/2017/11/24/opinion/vietnam-the-chemical-war.html?mtrref=www.google.ca&amp;assetType=opinion:1060 1061 1062,https://en.wikipedia.org:443/wiki/Summer_Olympic_Games:6241 6242,https://en.wikipedia.org:443/wiki/Sports_in_Washington:5334,https://en.wikipedia.org:443/wiki/United_States_dollar:8236,https://en.wikipedia.org:443/wiki/Fenway_Park:10179 10180 10181,https://www.nytimes.com:443/2024/04/18/t-magazine/chalet-des-iles-paris-restaurant.html:1336,https://www.patriots.com:443/news/ben-coates-elected-to-patriots-hall-of-fame-140866:1740 1741 1742 1743 1744 1745 1746 1747,https://en.wikipedia.org:443/wiki/Sports_in_Maryland:5876 5877,https://en.wikipedia.org:443/wiki/Boston:13603,https://en.wikipedia.org:443/wiki/American_Revolution:17249,https://www.nytimes.com:443/2024/05/03/arts/design/stanley-stellar-frieze-photography.html:889,https://en.wikipedia.org:443/wiki/New_England:10383 10384 10385,https://en.wikipedia.org:443/wiki/Iroquois:15741 15742 15743,https://en.wikipedia.org:443/wiki/Sports_teams_in_Virginia:1347 1348,https://en.wikipedia.org:443/wiki/Major_professional_sports_teams_of_the_United_States_and_Canada:2029,https://en.wikipedia.org:443/wiki/List_of_mountains_of_the_United_States:11288,https://www.nytimes.com:443/section/nyregion?page=4:1206,https://www.azcentral.com:443/story/sports/nfl/cardinals/2015/09/06/nfls-dynasties-decade/71605710/:800 801,https://commons.wikimedia.org:443/wiki/Category:Sports_in_Maryland:726,https://en.wikipedia.org:443/wiki/United_States_Declaration_of_Independence:11325,https://en.wikipedia.org:443/wiki/New_England_Patriots:14228 14229 14230 14231 14232 14233 14234 14235 14236 14237 14238 14239 14242 14243 14244 14245 14246 14247 14248 14249 14250 14251 14252 14253 14254 14255 14256 14257 14258 14259 14260 14261 14262 14263 14264 14265 14266,https://www.nytimes.com:443/wirecutter/:3360 3361,https://en.wikipedia.org:443/wiki/National_Football_League:7804 7805 7806 7807 7808 7809 7810 7811 7812 7813 7814 7815 7816 7817 7818 7819 7820 7821 7822,https://en.wikipedia.org:443/wiki/Indiana:11047,https://en.wikipedia.org:443/wiki/Baseball:10404 10405,https://www.nytimes.com:443/2024/04/20/health/seniors-home-equity-mortgages.html:912,https://en.wikipedia.org:443/wiki/National_monument_(United_States):1801,https://en.wikipedia.org:443/wiki/Henley_Royal_Regatta:4063 4064 4065 4066 4067 4068 4069 4070 4071,https://en.wikipedia.org:443/wiki/Horse_racing_in_the_United_States:1819 